/*--------------------------------*- C++ -*----------------------------------*\
| =========                 |                                                 |
| \\      /  F ield         | OpenFOAM: The Open Source CFD Toolbox           |
|  \\    /   O peration     | Version:  2.3.0                                 |
|   \\  /    A nd           | Web:      www.OpenFOAM.org                      |
|    \\/     M anipulation  |                                                 |
\*---------------------------------------------------------------------------*/
FoamFile
{
    version     2.0;
    format      ascii;
    class       dictionary;
    location    "constant";
    object      C3H7;
}
// * * * * * * * * * * * * * * * * * * * * * * * * * * * * * * * * * * * * * //

C3H7_table
13
(

10
(

113
(
0
1.04821e-33
1.25735e-33
1.2875e-33
8.97842e-34
2.4731e-34
5.60397e-35
1.59657e-35
4.1149e-36
1.24727e-36
7.79722e-37
3.79292e-37
3.16e-38
2.2166e-38
1.2525e-38
2.58583e-39
3.15104e-40
2.02742e-41
1.24754e-41
1.17656e-41
1.73423e-41
3.14e-41
1.07099e-40
3.55556e-40
1.44253e-39
3.16665e-39
1.29989e-38
1.85143e-37
5.90857e-37
1.48762e-34
3.59563e-32
2.05772e-31
1.01067e-28
3.16535e-27
1.48283e-25
4.88833e-23
1.62028e-22
6.35637e-20
8.50543e-18
3.957e-17
2.48872e-15
1.44994e-14
8.86609e-14
3.15563e-13
6.89216e-13
1.40498e-12
2.22782e-12
3.38983e-12
4.70238e-12
6.33481e-12
8.25561e-12
1.05016e-11
1.33375e-11
1.65667e-11
2.08102e-11
2.5531e-11
3.2348e-11
4.00213e-11
5.16333e-11
6.5015e-11
8.57181e-11
1.10909e-10
1.48028e-10
1.96159e-10
2.61185e-10
3.53778e-10
4.63541e-10
6.34183e-10
8.09309e-10
1.09204e-09
1.37476e-09
1.74308e-09
2.12769e-09
2.48284e-09
2.82068e-09
3.03647e-09
3.07665e-09
3.07088e-09
2.8408e-09
2.61071e-09
2.36952e-09
2.12722e-09
1.96071e-09
1.83681e-09
1.74637e-09
1.71049e-09
1.68413e-09
1.71165e-09
1.73917e-09
1.79569e-09
1.85311e-09
1.88327e-09
1.91388e-09
1.94449e-09
1.9751e-09
1.7818e-09
1.54584e-09
1.30989e-09
1.06752e-09
8.08658e-10
5.49797e-10
3.10864e-10
2.18066e-10
1.25267e-10
6.1587e-11
3.49667e-11
1.36793e-11
6.10519e-12
1.95189e-12
8.16229e-13
3.69086e-13
9.49381e-14
0
)


113
(
0
2.84291e-32
1.0751e-30
2.1021e-29
3.28729e-28
3.39049e-27
1.85525e-26
1.74533e-25
1.45599e-24
5.69784e-24
3.56816e-23
1.79287e-22
4.12167e-22
2.64996e-21
1.1601e-20
3.02124e-20
1.26903e-19
3.42468e-19
1.04312e-18
3.02843e-18
6.15296e-18
2.07869e-17
4.84777e-17
1.09691e-16
2.57127e-16
4.61285e-16
1.06828e-15
2.14966e-15
3.91366e-15
7.83401e-15
1.35258e-14
2.38536e-14
4.1742e-14
6.49194e-14
1.10398e-13
1.72823e-13
2.57712e-13
3.98274e-13
5.75821e-13
8.26797e-13
1.18093e-12
1.60771e-12
2.22737e-12
3.01026e-12
3.94998e-12
5.30371e-12
6.81968e-12
9.01024e-12
1.15871e-11
1.49847e-11
1.93369e-11
2.47654e-11
3.22184e-11
4.1021e-11
5.36991e-11
6.82009e-11
8.94298e-11
1.13406e-10
1.47815e-10
1.86911e-10
2.40118e-10
3.01972e-10
3.79867e-10
4.72569e-10
5.79125e-10
7.08284e-10
8.45046e-10
1.00876e-09
1.17325e-09
1.35631e-09
1.53938e-09
1.71484e-09
1.88886e-09
2.03434e-09
2.16307e-09
2.26241e-09
2.31946e-09
2.36374e-09
2.34567e-09
2.3276e-09
2.26404e-09
2.19598e-09
2.12101e-09
2.04215e-09
1.9709e-09
1.91206e-09
1.85608e-09
1.81631e-09
1.77653e-09
1.71616e-09
1.65516e-09
1.5964e-09
1.52871e-09
1.46103e-09
1.39335e-09
1.28837e-09
1.17629e-09
1.06421e-09
9.47033e-10
8.16761e-10
6.86488e-10
5.5846e-10
4.46899e-10
3.35339e-10
2.39886e-10
1.64934e-10
9.89249e-11
5.5912e-11
2.58117e-11
1.44979e-11
7.90395e-12
2.99317e-12
0
)


113
(
0
2.12957e-18
7.72934e-18
2.10618e-17
4.79016e-17
9.70404e-17
1.85651e-16
3.53437e-16
6.32682e-16
1.03085e-15
1.76208e-15
2.89763e-15
4.35087e-15
7.10214e-15
1.08098e-14
1.58937e-14
2.41103e-14
3.4208e-14
4.96657e-14
7.13888e-14
9.8668e-14
1.4096e-13
1.91945e-13
2.62924e-13
3.61807e-13
4.77582e-13
6.5192e-13
8.65052e-13
1.13401e-12
1.50929e-12
1.95092e-12
2.54216e-12
3.30262e-12
4.17913e-12
5.43981e-12
6.90684e-12
8.64739e-12
1.1065e-11
1.38152e-11
1.71415e-11
2.15429e-11
2.65886e-11
3.28168e-11
4.02528e-11
4.88492e-11
5.97695e-11
7.15443e-11
8.66514e-11
1.03396e-10
1.23621e-10
1.46408e-10
1.72085e-10
2.02441e-10
2.35916e-10
2.74522e-10
3.15543e-10
3.63602e-10
4.14535e-10
4.71915e-10
5.32192e-10
5.98546e-10
6.68625e-10
7.42794e-10
8.20739e-10
9.009e-10
9.84678e-10
1.06887e-09
1.1545e-09
1.24003e-09
1.32306e-09
1.40608e-09
1.48191e-09
1.55636e-09
1.6228e-09
1.68454e-09
1.73908e-09
1.78328e-09
1.82401e-09
1.84785e-09
1.87169e-09
1.87446e-09
1.87515e-09
1.86088e-09
1.83819e-09
1.80545e-09
1.75628e-09
1.70318e-09
1.6278e-09
1.55243e-09
1.45124e-09
1.34926e-09
1.28831e-09
1.22422e-09
1.16013e-09
1.09604e-09
1.02364e-09
9.49652e-10
8.75669e-10
8.00482e-10
7.22197e-10
6.43913e-10
5.65967e-10
4.90499e-10
4.15031e-10
3.42461e-10
2.73579e-10
2.07139e-10
1.46982e-10
9.2559e-11
6.70766e-11
4.44939e-11
2.26777e-11
0
)


113
(
0
7.86352e-15
1.90971e-14
3.61961e-14
6.05498e-14
9.38486e-14
1.39277e-13
2.03482e-13
2.86002e-13
3.86364e-13
5.27596e-13
7.03424e-13
9.06436e-13
1.19762e-12
1.53117e-12
1.92569e-12
2.45675e-12
3.05223e-12
3.79561e-12
4.68904e-12
5.71552e-12
7.04862e-12
8.49864e-12
1.01844e-11
1.23169e-11
1.47107e-11
1.76025e-11
2.0756e-11
2.42861e-11
2.85408e-11
3.32285e-11
3.8864e-11
4.50653e-11
5.16595e-11
5.97853e-11
6.86504e-11
7.84954e-11
8.95407e-11
1.01426e-10
1.15008e-10
1.29683e-10
1.45298e-10
1.64217e-10
1.83446e-10
2.02973e-10
2.26813e-10
2.51588e-10
2.77274e-10
3.04766e-10
3.36097e-10
3.68226e-10
4.01254e-10
4.367e-10
4.73759e-10
5.13692e-10
5.54976e-10
5.97502e-10
6.40534e-10
6.86296e-10
7.33286e-10
7.81461e-10
8.30364e-10
8.79371e-10
9.28475e-10
9.77465e-10
1.02627e-09
1.07479e-09
1.12231e-09
1.16967e-09
1.21335e-09
1.25703e-09
1.29571e-09
1.33344e-09
1.36676e-09
1.39749e-09
1.42388e-09
1.44403e-09
1.46221e-09
1.47082e-09
1.47943e-09
1.4737e-09
1.46655e-09
1.45046e-09
1.42936e-09
1.39995e-09
1.35698e-09
1.3116e-09
1.25259e-09
1.19357e-09
1.11853e-09
1.043e-09
9.99567e-10
9.54349e-10
9.09131e-10
8.63913e-10
8.13883e-10
7.62936e-10
7.11989e-10
6.60028e-10
6.05459e-10
5.50889e-10
4.96157e-10
4.4023e-10
3.84302e-10
3.28701e-10
2.73516e-10
2.18838e-10
1.65467e-10
1.12694e-10
8.64016e-11
5.94225e-11
3.1233e-11
0
)


113
(
0
4.10744e-13
8.59239e-13
1.39601e-12
2.03749e-12
2.79646e-12
3.69795e-12
4.78612e-12
6.03096e-12
7.42072e-12
9.09752e-12
1.09795e-11
1.30227e-11
1.54953e-11
1.81711e-11
2.11394e-11
2.45618e-11
2.8207e-11
3.23863e-11
3.69458e-11
4.18425e-11
4.74543e-11
5.33717e-11
5.99331e-11
6.73996e-11
7.53858e-11
8.38865e-11
9.29609e-11
1.02861e-10
1.1331e-10
1.24132e-10
1.35837e-10
1.4892e-10
1.62876e-10
1.76455e-10
1.91023e-10
2.06902e-10
2.24346e-10
2.422e-10
2.60416e-10
2.79749e-10
2.99852e-10
3.21917e-10
3.44686e-10
3.68133e-10
3.91121e-10
4.14469e-10
4.41447e-10
4.68897e-10
4.97348e-10
5.25791e-10
5.54223e-10
5.82811e-10
6.11503e-10
6.40417e-10
6.69436e-10
7.00382e-10
7.32115e-10
7.62807e-10
7.93032e-10
8.23037e-10
8.52909e-10
8.82241e-10
9.11075e-10
9.38924e-10
9.65163e-10
9.91033e-10
1.01559e-09
1.03997e-09
1.06e-09
1.08003e-09
1.09541e-09
1.10992e-09
1.12164e-09
1.13172e-09
1.13757e-09
1.1373e-09
1.13622e-09
1.13115e-09
1.12608e-09
1.11307e-09
1.09928e-09
1.0794e-09
1.05609e-09
1.02897e-09
9.95621e-10
9.60739e-10
9.17174e-10
8.7361e-10
8.20432e-10
7.66956e-10
7.36791e-10
7.05544e-10
6.74296e-10
6.43049e-10
6.08656e-10
5.73665e-10
5.38673e-10
5.02913e-10
4.65179e-10
4.27446e-10
3.895e-10
3.50003e-10
3.10507e-10
2.70446e-10
2.29667e-10
1.88408e-10
1.45916e-10
1.0154e-10
7.87151e-11
5.414e-11
2.82574e-11
0
)


113
(
0
2.82893e-12
5.60369e-12
8.50194e-12
1.16008e-11
1.49413e-11
1.85787e-11
2.25922e-11
2.69047e-11
3.14876e-11
3.65698e-11
4.19775e-11
4.76412e-11
5.39251e-11
6.04768e-11
6.74139e-11
7.48979e-11
8.26395e-11
9.09712e-11
9.96898e-11
1.08751e-10
1.18484e-10
1.28489e-10
1.39053e-10
1.50103e-10
1.61443e-10
1.7353e-10
1.85929e-10
1.98776e-10
2.12223e-10
2.25975e-10
2.4031e-10
2.55084e-10
2.70189e-10
2.87689e-10
3.04812e-10
3.21435e-10
3.38607e-10
3.56039e-10
3.73915e-10
3.92177e-10
4.10674e-10
4.29624e-10
4.5697e-10
4.92383e-10
5.12537e-10
5.29051e-10
5.39636e-10
5.53066e-10
5.72542e-10
5.92864e-10
6.14139e-10
6.34222e-10
6.5351e-10
6.71101e-10
6.87894e-10
6.99413e-10
7.08778e-10
7.23111e-10
7.39676e-10
7.5538e-10
7.70556e-10
7.84824e-10
7.98255e-10
8.10876e-10
8.22177e-10
8.33139e-10
8.42898e-10
8.52494e-10
8.58147e-10
8.638e-10
8.66641e-10
8.68946e-10
8.68864e-10
8.6738e-10
8.6416e-10
8.5844e-10
8.51924e-10
8.41519e-10
8.31114e-10
8.16067e-10
8.00561e-10
7.81575e-10
7.60632e-10
7.37545e-10
7.10959e-10
6.83523e-10
6.51263e-10
6.19003e-10
5.81436e-10
5.43705e-10
5.22936e-10
5.01566e-10
4.80195e-10
4.58825e-10
4.35615e-10
4.12054e-10
3.88492e-10
3.64392e-10
3.38903e-10
3.13415e-10
2.87701e-10
2.6033e-10
2.3296e-10
2.04638e-10
1.75106e-10
1.44823e-10
1.12607e-10
7.8342e-11
6.05605e-11
4.13838e-11
2.13683e-11
0
)


113
(
0
7.38929e-12
1.44034e-11
2.12705e-11
2.81456e-11
3.51087e-11
4.2231e-11
4.95986e-11
5.71755e-11
6.4945e-11
7.30789e-11
8.14489e-11
9.00045e-11
9.89974e-11
1.08171e-10
1.17605e-10
1.27388e-10
1.37332e-10
1.47632e-10
1.5815e-10
1.68862e-10
1.7993e-10
1.91027e-10
2.02095e-10
2.13541e-10
2.25204e-10
2.37143e-10
2.49183e-10
2.6137e-10
2.73728e-10
2.86165e-10
2.98741e-10
3.11402e-10
3.24118e-10
3.36928e-10
3.49762e-10
3.62625e-10
3.75494e-10
3.88353e-10
4.01181e-10
4.13945e-10
4.26663e-10
4.39251e-10
4.5173e-10
4.64105e-10
4.76236e-10
4.88281e-10
4.9999e-10
5.11549e-10
5.22784e-10
5.33748e-10
5.44404e-10
5.54646e-10
5.6461e-10
5.74016e-10
5.83159e-10
5.91617e-10
5.99795e-10
6.072e-10
6.14257e-10
6.20518e-10
6.26291e-10
6.31307e-10
6.35624e-10
6.39321e-10
6.42004e-10
6.4429e-10
6.45163e-10
6.45956e-10
6.44837e-10
6.43719e-10
6.40777e-10
6.37488e-10
6.32724e-10
6.27093e-10
6.20433e-10
6.12291e-10
6.04022e-10
5.9514e-10
5.86257e-10
5.72677e-10
5.58634e-10
5.42774e-10
5.25894e-10
5.07914e-10
4.88142e-10
4.67936e-10
4.45267e-10
4.22599e-10
3.97154e-10
3.71623e-10
3.57783e-10
3.43604e-10
3.29425e-10
3.15246e-10
2.99866e-10
2.84257e-10
2.68648e-10
2.52613e-10
2.3548e-10
2.18347e-10
2.01008e-10
1.8216e-10
1.63312e-10
1.43603e-10
1.22799e-10
1.014e-10
7.84708e-11
5.41759e-11
4.1607e-11
2.82397e-11
1.44442e-11
0
)


113
(
0
1.09274e-11
2.12841e-11
3.11998e-11
4.0822e-11
5.02285e-11
5.94644e-11
6.85762e-11
7.76286e-11
8.66376e-11
9.56093e-11
1.04577e-10
1.1354e-10
1.22516e-10
1.315e-10
1.40498e-10
1.49514e-10
1.58538e-10
1.67576e-10
1.76617e-10
1.85662e-10
1.94698e-10
2.03727e-10
2.12736e-10
2.21716e-10
2.30677e-10
2.39571e-10
2.48427e-10
2.5723e-10
2.65941e-10
2.74599e-10
2.83148e-10
2.91596e-10
2.99977e-10
3.08171e-10
3.16273e-10
3.24251e-10
3.32024e-10
3.39688e-10
3.47156e-10
3.54421e-10
3.61554e-10
3.68401e-10
3.75061e-10
3.81542e-10
3.87676e-10
3.93694e-10
3.99302e-10
4.04744e-10
4.09836e-10
4.14663e-10
4.19189e-10
4.23344e-10
4.27252e-10
4.30698e-10
4.33927e-10
4.36629e-10
4.39115e-10
4.41044e-10
4.42721e-10
4.43856e-10
4.44659e-10
4.44972e-10
4.44835e-10
4.44315e-10
4.43173e-10
4.41797e-10
4.39591e-10
4.37339e-10
4.3401e-10
4.3068e-10
4.26361e-10
4.21853e-10
4.1657e-10
4.10832e-10
4.04568e-10
3.97548e-10
3.903e-10
3.81941e-10
3.73582e-10
3.63954e-10
3.54201e-10
3.4352e-10
3.32317e-10
3.20542e-10
3.07832e-10
2.94886e-10
2.80597e-10
2.66308e-10
2.50394e-10
2.3443e-10
2.25763e-10
2.1688e-10
2.07997e-10
1.99113e-10
1.89405e-10
1.79539e-10
1.69674e-10
1.59506e-10
1.48562e-10
1.37617e-10
1.26532e-10
1.14414e-10
1.02297e-10
8.96412e-11
7.63011e-11
6.26303e-11
4.8109e-11
3.29116e-11
2.51076e-11
1.6945e-11
8.60334e-12
0
)


113
(
0
9.49233e-12
1.85812e-11
2.72878e-11
3.56799e-11
4.37906e-11
5.16217e-11
5.91663e-11
6.65148e-11
7.36946e-11
8.06032e-11
8.73583e-11
9.39928e-11
1.0037e-10
1.06647e-10
1.12781e-10
1.18731e-10
1.24596e-10
1.30278e-10
1.35847e-10
1.41316e-10
1.46598e-10
1.51807e-10
1.56865e-10
1.61795e-10
1.66649e-10
1.71307e-10
1.75883e-10
1.80341e-10
1.84638e-10
1.88853e-10
1.92907e-10
1.96835e-10
2.00678e-10
2.04316e-10
2.07861e-10
2.11285e-10
2.14523e-10
2.17669e-10
2.20651e-10
2.23476e-10
2.26201e-10
2.28719e-10
2.3111e-10
2.33378e-10
2.35423e-10
2.37395e-10
2.39114e-10
2.40738e-10
2.42158e-10
2.43429e-10
2.44532e-10
2.45438e-10
2.4621e-10
2.46746e-10
2.4717e-10
2.47332e-10
2.47387e-10
2.47174e-10
2.4684e-10
2.46253e-10
2.45511e-10
2.44547e-10
2.43377e-10
2.42037e-10
2.4042e-10
2.387e-10
2.36616e-10
2.34513e-10
2.31941e-10
2.29369e-10
2.2637e-10
2.23289e-10
2.19871e-10
2.16257e-10
2.12412e-10
2.08234e-10
2.03955e-10
1.9918e-10
1.94404e-10
1.89045e-10
1.83628e-10
1.77771e-10
1.71666e-10
1.65279e-10
1.58431e-10
1.51463e-10
1.43812e-10
1.36161e-10
1.27667e-10
1.19147e-10
1.14533e-10
1.09807e-10
1.05081e-10
1.00355e-10
9.52171e-11
9.00001e-11
8.47831e-11
7.94246e-11
7.37022e-11
6.79799e-11
6.21972e-11
5.59728e-11
4.97484e-11
4.33167e-11
3.6621e-11
2.98106e-11
2.27049e-11
1.53851e-11
1.1661e-11
7.8312e-12
3.95132e-12
0
)


113
(
0
1.1151e-12
2.20412e-12
3.26577e-12
4.30257e-12
5.31527e-12
6.30206e-12
7.2595e-12
8.19516e-12
9.11154e-12
9.9943e-12
1.08564e-11
1.17021e-11
1.25105e-11
1.33034e-11
1.40742e-11
1.4815e-11
1.55419e-11
1.62378e-11
1.6914e-11
1.75728e-11
1.81988e-11
1.88116e-11
1.93978e-11
1.99611e-11
2.0511e-11
2.10265e-11
2.15276e-11
2.20083e-11
2.24616e-11
2.29009e-11
2.33134e-11
2.37053e-11
2.40834e-11
2.44287e-11
2.47597e-11
2.50718e-11
2.5356e-11
2.56263e-11
2.58727e-11
2.60965e-11
2.63063e-11
2.64872e-11
2.66508e-11
2.67979e-11
2.69155e-11
2.70235e-11
2.70993e-11
2.7163e-11
2.72012e-11
2.72214e-11
2.72213e-11
2.71976e-11
2.71583e-11
2.70915e-11
2.70119e-11
2.69027e-11
2.67814e-11
2.66306e-11
2.64666e-11
2.62753e-11
2.60672e-11
2.58358e-11
2.55828e-11
2.53123e-11
2.50132e-11
2.47038e-11
2.43577e-11
2.40098e-11
2.36158e-11
2.32218e-11
2.27868e-11
2.23439e-11
2.18697e-11
2.13771e-11
2.08637e-11
2.03202e-11
1.97678e-11
1.91722e-11
1.85765e-11
1.79322e-11
1.72831e-11
1.65991e-11
1.58955e-11
1.5171e-11
1.44123e-11
1.36453e-11
1.28314e-11
1.20174e-11
1.11504e-11
1.02818e-11
9.82729e-12
9.36647e-12
8.90564e-12
8.44482e-12
7.96299e-12
7.47717e-12
6.99135e-12
6.4991e-12
5.99036e-12
5.48162e-12
4.97045e-12
4.44142e-12
3.91239e-12
3.37585e-12
2.82973e-12
2.27983e-12
1.7202e-12
1.15402e-12
8.68988e-13
5.80904e-13
2.91428e-13
0
)

)


10
(

113
(
0
2.501e-33
2.62141e-33
2.3838e-33
1.7746e-33
8.49567e-34
2.53311e-34
6.82514e-35
2.13616e-35
7.41451e-36
2.51393e-36
7.42761e-37
1.72968e-37
3.00824e-38
3.91939e-39
5.73564e-40
9.13439e-41
8.35097e-42
3.74313e-43
3.28914e-44
6.85204e-45
9.15379e-45
1.89324e-44
5.65738e-44
7.19551e-43
4.84155e-41
4.24854e-39
3.87926e-37
3.55826e-35
3.19212e-33
2.71671e-31
2.1142e-29
1.43509e-27
7.57721e-26
2.29745e-24
1.12192e-22
8.5565e-21
5.55112e-19
2.74918e-17
8.99066e-16
1.74415e-14
2.22677e-13
1.50999e-12
6.10676e-12
1.68468e-11
3.53039e-11
6.09942e-11
9.29338e-11
1.32444e-10
1.83677e-10
2.52675e-10
3.48058e-10
4.79689e-10
6.57924e-10
8.92448e-10
1.21774e-09
1.62952e-09
2.11603e-09
2.66616e-09
3.26739e-09
3.83587e-09
4.33305e-09
4.70983e-09
4.8314e-09
4.80221e-09
4.58571e-09
4.19986e-09
3.76915e-09
3.30101e-09
2.87414e-09
2.47121e-09
2.17415e-09
1.90722e-09
1.71757e-09
1.56838e-09
1.45901e-09
1.39368e-09
1.34539e-09
1.34497e-09
1.35368e-09
1.41525e-09
1.4951e-09
1.63581e-09
1.82852e-09
2.10396e-09
2.52806e-09
3.07185e-09
3.95047e-09
4.94069e-09
5.79799e-09
6.24878e-09
5.98752e-09
5.72625e-09
5.31961e-09
4.64997e-09
3.98034e-09
3.33399e-09
2.73578e-09
2.13757e-09
1.65019e-09
1.2572e-09
8.706e-10
6.45605e-10
4.20609e-10
2.84164e-10
1.63557e-10
9.93965e-11
5.04456e-11
2.12488e-11
1.15854e-11
5.68038e-12
1.76315e-12
0
)


113
(
0
3.42994e-31
1.18907e-29
3.34489e-28
3.73297e-27
4.21454e-26
3.46117e-25
2.71657e-24
1.89578e-23
1.07358e-22
6.16648e-22
3.22994e-21
1.44374e-20
5.56341e-20
1.85619e-19
5.98414e-19
2.1699e-18
7.27401e-18
2.27954e-17
6.47097e-17
1.68463e-16
4.08044e-16
9.31379e-16
2.31807e-15
5.4737e-15
1.22889e-14
2.61568e-14
5.31367e-14
1.03739e-13
1.94993e-13
3.54322e-13
6.27016e-13
1.08418e-12
1.82792e-12
3.01208e-12
4.8658e-12
7.6511e-12
1.1748e-11
1.77615e-11
2.6234e-11
3.8057e-11
5.44898e-11
7.67622e-11
1.06475e-10
1.4547e-10
1.95755e-10
2.59706e-10
3.39648e-10
4.39457e-10
5.61756e-10
7.07359e-10
8.77295e-10
1.07111e-09
1.28743e-09
1.5241e-09
1.78036e-09
2.04477e-09
2.30962e-09
2.56943e-09
2.80955e-09
3.0179e-09
3.19531e-09
3.33214e-09
3.40283e-09
3.4337e-09
3.41479e-09
3.33247e-09
3.22302e-09
3.06999e-09
2.89579e-09
2.7093e-09
2.51864e-09
2.33368e-09
2.16604e-09
2.02141e-09
1.89945e-09
1.82317e-09
1.76457e-09
1.77727e-09
1.80416e-09
1.91689e-09
2.05327e-09
2.26841e-09
2.52015e-09
2.83014e-09
3.16271e-09
3.51347e-09
3.81365e-09
4.09697e-09
4.17728e-09
4.16814e-09
4.05837e-09
3.94861e-09
3.78924e-09
3.54015e-09
3.29107e-09
3.01683e-09
2.69059e-09
2.36435e-09
2.03705e-09
1.70884e-09
1.38269e-09
1.10865e-09
8.34606e-10
6.20753e-10
4.17869e-10
2.78685e-10
1.63098e-10
8.0914e-11
5.00065e-11
2.81717e-11
1.15964e-11
0
)


113
(
0
6.43914e-17
2.36014e-16
6.53933e-16
1.48928e-15
3.06962e-15
5.98964e-15
1.11075e-14
1.99719e-14
3.44248e-14
5.75246e-14
9.35313e-14
1.48049e-13
2.2868e-13
3.45567e-13
5.17467e-13
7.6447e-13
1.11996e-12
1.6096e-12
2.27103e-12
3.15924e-12
4.34145e-12
5.87615e-12
7.98027e-12
1.06957e-11
1.41588e-11
1.86062e-11
2.40941e-11
3.09419e-11
3.95222e-11
4.98621e-11
6.24492e-11
7.77865e-11
9.57395e-11
1.17421e-10
1.4261e-10
1.72397e-10
2.06843e-10
2.45848e-10
2.90985e-10
3.41101e-10
3.98077e-10
4.6099e-10
5.30649e-10
6.05613e-10
6.88625e-10
7.76253e-10
8.69514e-10
9.6883e-10
1.07238e-09
1.18004e-09
1.2894e-09
1.40032e-09
1.51218e-09
1.62321e-09
1.73193e-09
1.83642e-09
1.93641e-09
2.03138e-09
2.11756e-09
2.19498e-09
2.26518e-09
2.32682e-09
2.37519e-09
2.41597e-09
2.44743e-09
2.4677e-09
2.483e-09
2.49004e-09
2.4933e-09
2.49437e-09
2.4926e-09
2.49219e-09
2.49607e-09
2.50499e-09
2.51888e-09
2.54336e-09
2.57193e-09
2.61396e-09
2.65846e-09
2.71645e-09
2.77567e-09
2.83897e-09
2.8976e-09
2.94882e-09
2.98373e-09
3.00551e-09
2.99012e-09
2.96234e-09
2.86799e-09
2.75218e-09
2.66922e-09
2.58626e-09
2.49001e-09
2.36971e-09
2.24942e-09
2.11991e-09
1.97134e-09
1.82277e-09
1.66431e-09
1.49743e-09
1.33045e-09
1.16111e-09
9.91778e-10
8.26756e-10
6.62576e-10
5.09661e-10
3.64153e-10
2.30827e-10
1.68935e-10
1.12316e-10
5.77214e-11
0
)


113
(
0
1.39667e-13
3.30871e-13
6.11805e-13
9.96345e-13
1.51165e-12
2.19074e-12
3.07096e-12
4.19369e-12
5.60392e-12
7.35037e-12
9.48576e-12
1.20784e-11
1.51966e-11
1.88971e-11
2.33436e-11
2.84974e-11
3.45716e-11
4.16039e-11
4.95931e-11
5.87466e-11
6.93494e-11
8.07908e-11
9.43766e-11
1.09423e-10
1.26262e-10
1.44887e-10
1.65446e-10
1.8802e-10
2.12637e-10
2.39638e-10
2.69331e-10
3.00994e-10
3.34477e-10
3.70472e-10
4.11198e-10
4.52047e-10
4.95069e-10
5.42008e-10
5.91096e-10
6.41688e-10
6.95503e-10
7.50496e-10
8.07551e-10
8.66562e-10
9.25424e-10
9.88012e-10
1.05193e-09
1.11573e-09
1.18039e-09
1.24635e-09
1.31108e-09
1.37596e-09
1.44193e-09
1.50809e-09
1.5729e-09
1.63598e-09
1.69775e-09
1.75844e-09
1.81805e-09
1.87854e-09
1.9372e-09
1.9916e-09
2.04459e-09
2.09734e-09
2.15001e-09
2.19926e-09
2.24646e-09
2.28962e-09
2.33309e-09
2.37675e-09
2.41648e-09
2.4548e-09
2.48936e-09
2.52081e-09
2.5492e-09
2.57368e-09
2.59664e-09
2.60988e-09
2.62121e-09
2.62096e-09
2.61743e-09
2.60299e-09
2.58073e-09
2.54604e-09
2.49754e-09
2.43792e-09
2.35345e-09
2.26068e-09
2.14609e-09
2.02288e-09
1.95115e-09
1.87942e-09
1.80291e-09
1.71775e-09
1.63258e-09
1.54364e-09
1.44689e-09
1.35014e-09
1.24856e-09
1.14286e-09
1.03694e-09
9.25492e-10
8.14041e-10
7.00542e-10
5.8669e-10
4.73065e-10
3.59928e-10
2.46963e-10
1.90159e-10
1.31423e-10
6.93774e-11
0
)


113
(
0
2.57213e-12
5.26755e-12
8.38572e-12
1.19932e-11
1.61677e-11
2.09744e-11
2.64645e-11
3.26807e-11
3.96605e-11
4.74398e-11
5.60538e-11
6.55373e-11
7.5927e-11
8.7258e-11
9.96417e-11
1.13186e-10
1.27802e-10
1.43522e-10
1.60377e-10
1.78401e-10
1.97624e-10
2.18078e-10
2.39984e-10
2.63876e-10
2.88935e-10
3.14865e-10
3.4208e-10
3.70401e-10
3.99957e-10
4.31316e-10
4.62402e-10
4.96394e-10
5.30535e-10
5.65443e-10
6.03758e-10
6.43328e-10
6.82563e-10
7.26215e-10
7.66886e-10
8.11284e-10
8.55385e-10
9.01608e-10
9.49168e-10
9.98287e-10
1.04322e-09
1.08792e-09
1.13642e-09
1.18534e-09
1.23439e-09
1.28359e-09
1.33221e-09
1.38228e-09
1.43327e-09
1.48181e-09
1.529e-09
1.57722e-09
1.62778e-09
1.67927e-09
1.72143e-09
1.76828e-09
1.81439e-09
1.8559e-09
1.89905e-09
1.94106e-09
1.98083e-09
2.01665e-09
2.05099e-09
2.08325e-09
2.1126e-09
2.14025e-09
2.16094e-09
2.17979e-09
2.19401e-09
2.20249e-09
2.20533e-09
2.20397e-09
2.20098e-09
2.18948e-09
2.17624e-09
2.15231e-09
2.12539e-09
2.08856e-09
2.04631e-09
1.99541e-09
1.9362e-09
1.87029e-09
1.79267e-09
1.71114e-09
1.614e-09
1.51222e-09
1.45593e-09
1.39964e-09
1.34083e-09
1.27747e-09
1.2141e-09
1.14873e-09
1.07924e-09
1.00974e-09
9.37595e-10
8.63197e-10
7.88659e-10
7.10581e-10
6.32504e-10
5.51925e-10
4.70887e-10
3.86779e-10
3.00503e-10
2.10102e-10
1.62952e-10
1.12499e-10
5.88036e-11
0
)


113
(
0
9.59333e-12
1.87714e-11
2.81597e-11
3.80051e-11
4.84663e-11
5.96497e-11
7.16168e-11
8.43985e-11
9.80065e-11
1.12443e-10
1.27708e-10
1.43796e-10
1.60707e-10
1.78438e-10
1.97047e-10
2.1658e-10
2.36932e-10
2.58099e-10
2.8008e-10
3.02873e-10
3.26474e-10
3.50883e-10
3.76212e-10
4.02322e-10
4.29204e-10
4.56847e-10
4.8524e-10
5.14368e-10
5.44216e-10
5.74765e-10
6.05996e-10
6.37887e-10
6.70643e-10
7.08338e-10
7.42242e-10
7.76688e-10
8.11641e-10
8.47064e-10
8.82923e-10
9.19181e-10
9.55809e-10
9.92758e-10
1.03778e-09
1.12192e-09
1.11874e-09
1.13682e-09
1.18572e-09
1.23609e-09
1.27606e-09
1.31186e-09
1.34694e-09
1.38294e-09
1.4183e-09
1.44976e-09
1.47936e-09
1.50552e-09
1.52391e-09
1.5369e-09
1.56527e-09
1.59222e-09
1.61797e-09
1.64226e-09
1.66433e-09
1.68499e-09
1.70385e-09
1.71982e-09
1.73418e-09
1.74553e-09
1.75424e-09
1.76142e-09
1.76404e-09
1.76515e-09
1.7623e-09
1.75647e-09
1.7477e-09
1.73423e-09
1.71893e-09
1.69713e-09
1.67409e-09
1.64389e-09
1.61178e-09
1.5733e-09
1.53147e-09
1.4843e-09
1.43216e-09
1.37602e-09
1.31313e-09
1.24798e-09
1.17409e-09
1.09765e-09
1.05649e-09
1.01532e-09
9.72779e-10
9.27759e-10
8.8274e-10
8.3658e-10
7.88063e-10
7.39547e-10
6.89276e-10
6.37512e-10
5.85625e-10
5.30608e-10
4.75592e-10
4.17505e-10
3.58851e-10
2.95987e-10
2.30578e-10
1.60849e-10
1.24203e-10
8.50885e-11
4.39418e-11
0
)


113
(
0
1.87149e-11
3.62761e-11
5.3309e-11
7.02162e-11
8.72169e-11
1.04471e-10
1.22088e-10
1.40139e-10
1.58663e-10
1.77681e-10
1.97201e-10
2.17226e-10
2.37751e-10
2.5877e-10
2.80309e-10
3.0238e-10
3.24909e-10
3.47883e-10
3.71287e-10
3.95108e-10
4.19331e-10
4.43943e-10
4.67585e-10
4.92381e-10
5.17578e-10
5.43014e-10
5.68663e-10
5.94501e-10
6.20501e-10
6.46634e-10
6.72871e-10
6.99181e-10
7.25534e-10
7.51896e-10
7.78232e-10
8.04506e-10
8.30684e-10
8.56729e-10
8.82603e-10
9.08268e-10
9.33676e-10
9.58788e-10
9.83564e-10
1.00796e-09
1.03194e-09
1.05546e-09
1.07847e-09
1.10088e-09
1.12265e-09
1.14376e-09
1.16416e-09
1.1838e-09
1.20265e-09
1.22069e-09
1.23761e-09
1.25353e-09
1.26847e-09
1.28245e-09
1.29505e-09
1.30633e-09
1.31653e-09
1.32545e-09
1.33252e-09
1.33843e-09
1.34291e-09
1.34525e-09
1.34646e-09
1.3456e-09
1.34282e-09
1.33893e-09
1.33185e-09
1.32375e-09
1.31298e-09
1.30027e-09
1.28565e-09
1.26807e-09
1.24935e-09
1.22946e-09
1.20881e-09
1.18039e-09
1.15091e-09
1.11792e-09
1.08311e-09
1.04544e-09
1.00513e-09
9.62708e-10
9.16734e-10
8.69575e-10
8.17763e-10
7.64539e-10
7.36281e-10
7.08024e-10
6.78932e-10
6.48328e-10
6.17725e-10
5.8633e-10
5.53297e-10
5.20263e-10
4.85822e-10
4.5018e-10
4.14429e-10
3.75902e-10
3.37375e-10
2.96113e-10
2.54347e-10
2.09129e-10
1.62072e-10
1.12067e-10
8.59435e-11
5.84303e-11
2.98783e-11
0
)


113
(
0
2.45845e-11
4.77785e-11
6.99077e-11
9.13209e-11
1.12178e-10
1.32612e-10
1.52734e-10
1.72632e-10
1.92374e-10
2.12008e-10
2.31568e-10
2.51078e-10
2.70557e-10
2.90013e-10
3.09454e-10
3.28879e-10
3.48287e-10
3.67674e-10
3.87032e-10
4.06352e-10
4.25622e-10
4.44832e-10
4.63952e-10
4.82978e-10
5.01894e-10
5.20684e-10
5.3933e-10
5.57814e-10
5.76117e-10
5.94219e-10
6.12102e-10
6.29744e-10
6.47124e-10
6.64222e-10
6.81009e-10
6.97471e-10
7.13588e-10
7.29341e-10
7.44707e-10
7.59666e-10
7.74182e-10
7.88239e-10
8.0182e-10
8.14908e-10
8.27479e-10
8.39514e-10
8.50994e-10
8.61855e-10
8.72079e-10
8.81676e-10
8.90619e-10
8.98899e-10
9.06508e-10
9.13442e-10
9.19482e-10
9.24742e-10
9.29274e-10
9.33093e-10
9.35916e-10
9.37826e-10
9.38999e-10
9.39308e-10
9.38403e-10
9.36771e-10
9.34228e-10
9.30369e-10
9.25832e-10
9.20066e-10
9.13185e-10
9.05659e-10
8.9634e-10
8.86458e-10
8.75111e-10
8.62727e-10
8.49322e-10
8.34365e-10
8.18807e-10
8.01211e-10
7.83233e-10
7.63105e-10
7.42421e-10
7.19884e-10
6.96387e-10
6.71362e-10
6.44911e-10
6.17311e-10
5.87703e-10
5.57427e-10
5.24371e-10
4.90415e-10
4.72388e-10
4.54361e-10
4.35766e-10
4.16145e-10
3.96523e-10
3.76341e-10
3.54997e-10
3.33654e-10
3.11305e-10
2.88102e-10
2.64823e-10
2.39635e-10
2.14448e-10
1.87509e-10
1.6025e-10
1.30974e-10
1.00724e-10
6.89678e-11
5.25481e-11
3.55038e-11
1.80202e-11
0
)


113
(
0
2.04665e-11
4.00322e-11
5.87564e-11
7.67966e-11
9.41964e-11
1.10997e-10
1.27247e-10
1.4299e-10
1.5827e-10
1.73123e-10
1.87578e-10
2.01661e-10
2.15393e-10
2.28791e-10
2.41848e-10
2.5456e-10
2.66979e-10
2.7911e-10
2.90962e-10
3.02537e-10
3.1384e-10
3.24873e-10
3.35597e-10
3.46057e-10
3.56254e-10
3.66186e-10
3.75853e-10
3.85252e-10
3.94381e-10
4.03238e-10
4.11821e-10
4.20125e-10
4.28148e-10
4.35886e-10
4.43328e-10
4.50477e-10
4.57332e-10
4.63889e-10
4.70144e-10
4.76092e-10
4.81719e-10
4.87025e-10
4.9201e-10
4.9667e-10
5.01001e-10
5.05e-10
5.08662e-10
5.1196e-10
5.14891e-10
5.1747e-10
5.19689e-10
5.2155e-10
5.23054e-10
5.24207e-10
5.24901e-10
5.25205e-10
5.25148e-10
5.24742e-10
5.23856e-10
5.22537e-10
5.20872e-10
5.18805e-10
5.1618e-10
5.13225e-10
5.09856e-10
5.05898e-10
5.01638e-10
4.96831e-10
4.91532e-10
4.85947e-10
4.79572e-10
4.72947e-10
4.65676e-10
4.57943e-10
4.49757e-10
4.40871e-10
4.31716e-10
4.21628e-10
4.11363e-10
4.00093e-10
3.88556e-10
3.7613e-10
3.63229e-10
3.49574e-10
3.35194e-10
3.20231e-10
3.04224e-10
2.87869e-10
2.7005e-10
2.51758e-10
2.4206e-10
2.32361e-10
2.22371e-10
2.11851e-10
2.01332e-10
1.90535e-10
1.79164e-10
1.67794e-10
1.55957e-10
1.43722e-10
1.31454e-10
1.18366e-10
1.05277e-10
9.1496e-11
7.75889e-11
6.29508e-11
4.79868e-11
3.25321e-11
2.46362e-11
1.65559e-11
8.35149e-12
0
)


113
(
0
2.37763e-12
4.69874e-12
6.96107e-12
9.17087e-12
1.13271e-11
1.3429e-11
1.54764e-11
1.74702e-11
1.94111e-11
2.13003e-11
2.31386e-11
2.49268e-11
2.66655e-11
2.83554e-11
2.99934e-11
3.15772e-11
3.31134e-11
3.46021e-11
3.60438e-11
3.74386e-11
3.87865e-11
4.00878e-11
4.13353e-11
4.25371e-11
4.36932e-11
4.48036e-11
4.58685e-11
4.68879e-11
4.7862e-11
4.87907e-11
4.96742e-11
5.05126e-11
5.13059e-11
5.20543e-11
5.27567e-11
5.34146e-11
5.40282e-11
5.45977e-11
5.51232e-11
5.56049e-11
5.60413e-11
5.64333e-11
5.67816e-11
5.70862e-11
5.73475e-11
5.75653e-11
5.77401e-11
5.78687e-11
5.79517e-11
5.79915e-11
5.79877e-11
5.7941e-11
5.78523e-11
5.77224e-11
5.75397e-11
5.73126e-11
5.7045e-11
5.67384e-11
5.63788e-11
5.59722e-11
5.55283e-11
5.50414e-11
5.44956e-11
5.39153e-11
5.32922e-11
5.26086e-11
5.18945e-11
5.11254e-11
5.03076e-11
4.94615e-11
4.85386e-11
4.7592e-11
4.65838e-11
4.55327e-11
4.44394e-11
4.32829e-11
4.21019e-11
4.08389e-11
3.95608e-11
3.81974e-11
3.68122e-11
3.53549e-11
3.38607e-11
3.23082e-11
3.07026e-11
2.90543e-11
2.73345e-11
2.55909e-11
2.37539e-11
2.1889e-11
2.09242e-11
1.99593e-11
1.89787e-11
1.79697e-11
1.69607e-11
1.5938e-11
1.48873e-11
1.38365e-11
1.27649e-11
1.16756e-11
1.0585e-11
9.461e-12
8.33701e-12
7.18728e-12
6.03287e-12
4.85338e-12
3.66345e-12
2.45812e-12
1.85036e-12
1.23725e-12
6.20645e-13
0
)

)


10
(

113
(
0
4.79878e-42
5.35e-42
5.18553e-42
4.49059e-42
3.03151e-42
1.338e-42
4.84792e-43
1.76784e-43
6.3067e-44
2.05968e-44
5.55333e-45
8.255e-46
1.57846e-45
1.56308e-45
1.57333e-45
3.054e-44
4.41192e-43
3.95833e-42
3.05417e-41
7.09446e-40
1.8305e-38
4.93733e-37
1.06546e-35
5.68777e-35
2.17538e-33
8.40333e-32
3.0745e-30
9.7885e-29
1.91417e-27
1.73558e-26
7.81527e-25
3.0917e-23
1.06795e-21
3.333e-20
9.66727e-19
2.19809e-17
3.44545e-16
2.73e-15
4.68845e-14
5.41964e-13
4.4262e-12
2.25555e-11
8.5e-11
2.34364e-10
5.08909e-10
9.33455e-10
1.48333e-09
2.11833e-09
2.86e-09
3.64462e-09
4.55667e-09
5.52077e-09
6.45857e-09
7.30143e-09
7.96714e-09
8.42286e-09
8.63e-09
8.35667e-09
7.91063e-09
7.29187e-09
6.49312e-09
5.67438e-09
4.85563e-09
4.16118e-09
3.52e-09
3.07556e-09
2.66e-09
2.36e-09
2.10667e-09
1.92333e-09
1.79632e-09
1.70684e-09
1.66158e-09
1.63526e-09
1.658e-09
1.693e-09
1.784e-09
1.889e-09
2.082e-09
2.297e-09
2.672e-09
3.087e-09
3.87316e-09
4.75211e-09
6.2215e-09
7.7565e-09
9.455e-09
1.10056e-08
1.10611e-08
1.06765e-08
9.97059e-09
9.26471e-09
8.51938e-09
7.61625e-09
6.71313e-09
5.81e-09
5.04667e-09
4.28333e-09
3.52e-09
2.88667e-09
2.25333e-09
1.74909e-09
1.33091e-09
9.64e-10
6.74e-10
4.38e-10
2.53833e-10
1.33e-10
8.79375e-11
4.375e-11
1.49e-11
0
)


113
(
0
7.09381e-30
2.77699e-28
4.85382e-27
5.43751e-26
5.11793e-25
4.64045e-24
3.8638e-23
2.47472e-22
1.73607e-21
9.91019e-21
4.82123e-20
2.00492e-19
7.16396e-19
2.66905e-18
9.78059e-18
3.49708e-17
1.16604e-16
3.04365e-16
8.3641e-16
2.52097e-15
6.47559e-15
1.57542e-14
3.62278e-14
7.81055e-14
1.77863e-13
3.81568e-13
7.73577e-13
1.48634e-12
2.71655e-12
4.94477e-12
8.93926e-12
1.57546e-11
2.65111e-11
4.27173e-11
6.72206e-11
1.0287e-10
1.53424e-10
2.23067e-10
3.20162e-10
4.47458e-10
6.0934e-10
8.13596e-10
1.05977e-09
1.3551e-09
1.696e-09
2.08048e-09
2.50425e-09
2.95747e-09
3.4318e-09
3.91318e-09
4.38141e-09
4.82106e-09
5.22219e-09
5.56101e-09
5.81391e-09
5.99498e-09
6.10051e-09
6.07167e-09
5.97595e-09
5.81335e-09
5.55071e-09
5.25525e-09
4.90914e-09
4.5423e-09
4.1666e-09
3.80458e-09
3.45282e-09
3.14212e-09
2.86147e-09
2.6259e-09
2.44405e-09
2.298e-09
2.22237e-09
2.17692e-09
2.22318e-09
2.29237e-09
2.47321e-09
2.68197e-09
3.02589e-09
3.40359e-09
3.92581e-09
4.48414e-09
5.1479e-09
5.83802e-09
6.51475e-09
7.19001e-09
7.64898e-09
8.03955e-09
8.03088e-09
7.86521e-09
7.59919e-09
7.33318e-09
7.02597e-09
6.55396e-09
6.08196e-09
5.60995e-09
5.04527e-09
4.48059e-09
3.91591e-09
3.3679e-09
2.81988e-09
2.31894e-09
1.84938e-09