/*--------------------------------*- C++ -*----------------------------------*\
| =========                 |                                                 |
| \\      /  F ield         | OpenFOAM: The Open Source CFD Toolbox           |
|  \\    /   O peration     | Version:  2.3.0                                 |
|   \\  /    A nd           | Web:      www.OpenFOAM.org                      |
|    \\/     M anipulation  |                                                 |
\*---------------------------------------------------------------------------*/
FoamFile
{
    version     2.0;
    format      ascii;
    class       dictionary;
    location    "constant";
    object      C3H8;
}
// * * * * * * * * * * * * * * * * * * * * * * * * * * * * * * * * * * * * * //

C3H8_table
13
(

10
(

113
(
0
1.67625e-36
2.93253e-36
3.48e-36
3.19763e-36
2.22119e-36
1.22913e-36
6.45117e-37
2.85717e-37
9.76298e-38
4.94841e-38
1.92072e-38
2.97e-39
1.57629e-39
5.71741e-40
1.27207e-40
2.00963e-41
1.11391e-42
5.48665e-43
3.50632e-43
4.78239e-43
7.75817e-43
2.46889e-42
8.08e-42
3.19864e-41
7.81025e-41
7.08227e-40
1.4647e-37
5.01078e-37
2.6846e-34
7.1338e-32
4.08505e-31
2.1249e-28
7.3385e-27
3.46613e-25
1.29121e-22
4.28146e-22
1.8582e-19
2.81405e-17
1.31087e-16
1.13423e-14
9.14435e-14
6.40139e-13
3.39212e-12
8.26098e-12
2.49466e-11
4.7343e-11
9.77341e-11
1.6867e-10
2.83265e-10
4.5484e-10
6.90668e-10
1.05531e-09
1.50583e-09
2.22645e-09
3.07416e-09
4.46936e-09
6.08817e-09
8.86e-09
1.21499e-08
1.78876e-08
2.51257e-08
3.74935e-08
5.45963e-08
8.15259e-08
1.24489e-07
1.82321e-07
2.92872e-07
4.10473e-07
6.97291e-07
9.84109e-07
1.62674e-06
2.33715e-06
3.56486e-06
5.0964e-06
6.97009e-06
9.33616e-06
1.16385e-05
1.36296e-05
1.56208e-05
1.61207e-05
1.64731e-05
1.60336e-05
1.51487e-05
1.41229e-05
1.28673e-05
1.16122e-05
1.03599e-05
9.10757e-06
7.97005e-06
6.83608e-06
6.31806e-06
5.81551e-06
5.31296e-06
4.81041e-06
4.35955e-06
3.91854e-06
3.47753e-06
3.05456e-06
2.67797e-06
2.30139e-06
1.93239e-06
1.61896e-06
1.30552e-06
1.02102e-06
7.73333e-07
5.40901e-07
3.47691e-07
1.86536e-07
1.15777e-07
6.29914e-08
2.18143e-08
0
)


113
(
0
2.46973e-31
1.18257e-29
2.08188e-28
3.50027e-27
3.42014e-26
1.81818e-25
1.94211e-24
1.71915e-23
6.77443e-23
4.24346e-22
2.16296e-21
4.98743e-21
3.73351e-20
1.6267e-19
4.21816e-19
1.91795e-18
5.37665e-18
1.69074e-17
5.19248e-17
1.0777e-16
3.69662e-16
9.11873e-16
2.18675e-15
5.41926e-15
9.95658e-15
2.44725e-14
5.3118e-14
1.02096e-13
2.19505e-13
3.99705e-13
7.51764e-13
1.4264e-12
2.32975e-12
4.33416e-12
7.34175e-12
1.16792e-11
1.99683e-11
3.12983e-11
4.89646e-11
7.75211e-11
1.14461e-10
1.77002e-10
2.66104e-10
3.80728e-10
5.81511e-10
8.20265e-10
1.23345e-09
1.77011e-09
2.56915e-09
3.75091e-09
5.36424e-09
7.9885e-09
1.12867e-08
1.69871e-08
2.3818e-08
3.60547e-08
5.04995e-08
7.59861e-08
1.06434e-07
1.5664e-07
2.18957e-07
3.13239e-07
4.37028e-07
6.01243e-07
8.31417e-07
1.09821e-06
1.49481e-06
1.90045e-06
2.52298e-06
3.14552e-06
3.9777e-06
4.84981e-06
5.84127e-06
6.90282e-06
7.97448e-06
9.06066e-06
1.01092e-05
1.09742e-05
1.18392e-05
1.22888e-05
1.26973e-05
1.27498e-05
1.2602e-05
1.22716e-05
1.16433e-05
1.09705e-05
1.00462e-05
9.12194e-06
8.10356e-06
7.08226e-06
6.58426e-06
6.09025e-06
5.59624e-06
5.10223e-06
4.64826e-06
4.20192e-06
3.75557e-06
3.32556e-06
2.93755e-06
2.54955e-06
2.16878e-06
1.841e-06
1.51322e-06
1.21077e-06
9.40569e-07
6.84757e-07
4.65948e-07
2.74956e-07
1.8797e-07
1.16455e-07
5.32913e-08
0
)


113
(
0
1.43787e-16
5.46268e-16
1.56475e-15
3.73457e-15
7.92956e-15
1.59334e-14
3.24287e-14
6.09898e-14
1.03069e-13
1.89649e-13
3.32228e-13
5.18806e-13
9.10818e-13
1.4789e-12
2.30036e-12
3.77343e-12
5.66696e-12
8.81797e-12
1.37887e-11
2.0373e-11
3.11846e-11
4.50213e-11
6.61308e-11
9.99546e-11
1.41445e-10
2.08143e-10
2.94316e-10
4.08513e-10
5.95358e-10
8.25265e-10
1.14884e-09
1.61259e-09
2.17256e-09
3.05668e-09
4.13815e-09
5.48122e-09
7.55239e-09
1.00385e-08
1.3299e-08
1.77788e-08
2.3057e-08
3.01733e-08
3.95395e-08
5.10673e-08
6.55822e-08
8.18024e-08
1.07216e-07
1.35392e-07
1.69434e-07
2.11279e-07
2.61922e-07
3.24587e-07
3.95266e-07
4.85553e-07
5.85067e-07
7.09234e-07
8.4347e-07
1.01017e-06
1.19145e-06
1.40575e-06
1.6403e-06
1.90626e-06
2.20121e-06
2.51934e-06
2.87527e-06
3.24427e-06
3.65962e-06
4.07676e-06
4.53661e-06
4.99646e-06
5.47197e-06
5.95047e-06
6.4185e-06
6.8804e-06
7.31784e-06
7.72011e-06
8.10351e-06
8.39477e-06
8.68603e-06
8.83948e-06
8.9793e-06
8.99856e-06
8.95001e-06
8.82607e-06
8.57911e-06
8.30592e-06
7.88402e-06
7.46213e-06
6.89162e-06
6.31651e-06
5.99509e-06
5.66298e-06
5.33087e-06
4.99875e-06
4.64885e-06
4.29556e-06
3.94227e-06
3.58912e-06
3.23633e-06
2.88354e-06
2.53364e-06
2.20495e-06
1.87625e-06
1.56017e-06
1.26015e-06
9.68847e-07
6.99974e-07
4.50812e-07
3.32152e-07
2.23202e-07
1.15711e-07
0
)


113
(
0
6.44181e-12
1.61558e-11
3.16637e-11
5.46639e-11
8.72709e-11
1.33392e-10
2.01522e-10
2.92131e-10
4.0499e-10
5.71117e-10
7.84845e-10
1.03598e-09
1.43732e-09
1.90292e-09
2.46099e-09
3.2286e-09
4.10548e-09
5.26006e-09
6.64915e-09
8.24621e-09
1.03662e-08
1.28319e-08
1.61163e-08
1.9905e-08
2.39983e-08
2.91221e-08
3.53415e-08
4.31374e-08
5.22724e-08
6.21545e-08
7.35871e-08
8.75885e-08
1.03296e-07
1.22108e-07
1.43457e-07
1.68169e-07
1.97064e-07
2.28262e-07
2.63692e-07
3.04719e-07
3.49196e-07
4.00522e-07
4.59302e-07
5.25245e-07
5.96867e-07
6.71341e-07
7.60134e-07
8.53549e-07
9.56786e-07
1.06729e-06
1.186e-06
1.31927e-06
1.46226e-06
1.61441e-06
1.77088e-06
1.94692e-06
2.13096e-06
2.32567e-06
2.52518e-06
2.73681e-06
2.95588e-06
3.18177e-06
3.41396e-06
3.65018e-06
3.89296e-06
4.13644e-06
4.38239e-06
4.62802e-06
4.86591e-06
5.1038e-06
5.32645e-06
5.5462e-06
5.74465e-06
5.93058e-06
6.09943e-06
6.24369e-06
6.37749e-06
6.46023e-06
6.54296e-06
6.56307e-06
6.57699e-06
6.53256e-06
6.45531e-06
6.34322e-06
6.17427e-06
5.9913e-06
5.72883e-06
5.46635e-06
5.12961e-06
4.79056e-06
4.59404e-06
4.389e-06
4.18396e-06
3.97892e-06
3.75136e-06
3.5195e-06
3.28765e-06
3.05101e-06
2.80204e-06
2.55308e-06
2.30325e-06
2.04704e-06
1.79082e-06
1.53538e-06
1.28092e-06
1.02823e-06
7.80112e-07
5.33389e-07
4.10032e-07
2.82581e-07
1.4891e-07
0
)


113
(
0
8.84382e-10
1.87327e-09
3.0833e-09
4.55639e-09
6.32871e-09
8.47009e-09
1.11069e-08
1.4169e-08
1.76276e-08
2.18897e-08
2.6742e-08
3.2058e-08
3.8643e-08
4.58453e-08
5.39362e-08
6.34442e-08
7.36572e-08
8.55828e-08
9.87617e-08
1.13052e-07
1.29763e-07
1.47529e-07
1.67534e-07
1.89713e-07
2.13215e-07
2.41586e-07
2.71741e-07
3.04463e-07
3.39075e-07
3.75977e-07
4.19721e-07
4.63804e-07
5.08186e-07
5.56616e-07
6.11554e-07
6.75116e-07
7.35185e-07
7.97191e-07
8.66105e-07
9.43429e-07
1.0245e-06
1.10535e-06
1.19099e-06
1.28125e-06
1.38414e-06
1.48811e-06
1.58136e-06
1.68417e-06
1.80729e-06
1.92696e-06
2.04275e-06
2.16529e-06
2.29232e-06
2.42647e-06
2.56396e-06
2.70073e-06
2.83721e-06
2.9754e-06
3.11434e-06
3.25391e-06
3.39386e-06
3.53306e-06
3.67157e-06
3.80715e-06
3.93798e-06
4.06692e-06
4.18917e-06
4.31079e-06
4.41764e-06
4.52449e-06
4.61037e-06
4.69225e-06
4.76119e-06
4.82254e-06
4.86847e-06
4.89222e-06
4.9113e-06
4.90757e-06
4.90384e-06
4.86373e-06
4.82002e-06
4.74808e-06
4.66025e-06
4.55458e-06
4.4198e-06
4.2778e-06
4.0949e-06
3.91199e-06
3.6834e-06
3.4534e-06
3.32191e-06
3.18521e-06
3.04852e-06
2.91182e-06
2.7597e-06
2.60464e-06
2.44957e-06
2.29061e-06
2.12163e-06
1.95264e-06
1.78252e-06
1.60403e-06
1.42554e-06
1.24385e-06
1.05809e-06
8.69769e-07
6.74865e-07
4.70557e-07
3.65243e-07
2.51446e-07
1.31387e-07
0
)


113
(
0
8.93262e-09
1.77952e-08
2.71587e-08
3.72689e-08
4.82652e-08
6.03489e-08
7.38199e-08
8.8404e-08
1.04e-07
1.21484e-07
1.40221e-07
1.59941e-07
1.82085e-07
2.05292e-07
2.3003e-07
2.56974e-07
2.84967e-07
3.15379e-07
3.47404e-07
3.80858e-07
4.17157e-07
4.54618e-07
4.94488e-07
5.36488e-07
5.79753e-07
6.26343e-07
6.74343e-07
7.24371e-07
7.77162e-07
8.3137e-07
8.88309e-07
9.47352e-07
1.00789e-06
1.07561e-06
1.14322e-06
1.21066e-06
1.28086e-06
1.35238e-06
1.42617e-06
1.50201e-06
1.5791e-06
1.65866e-06
1.74571e-06
1.83995e-06
1.92473e-06
2.00985e-06
2.11225e-06
2.2071e-06
2.28589e-06
2.37236e-06
2.4675e-06
2.55595e-06
2.63994e-06
2.71916e-06
2.79614e-06
2.85542e-06
2.90747e-06
2.97704e-06
3.05449e-06
3.12874e-06
3.20101e-06
3.26975e-06
3.33523e-06
3.39746e-06
3.45437e-06
3.50897e-06
3.55533e-06
3.60117e-06
3.63461e-06
3.66804e-06
3.68946e-06
3.7086e-06
3.71739e-06
3.72012e-06
3.71522e-06
3.69936e-06
3.67997e-06
3.64333e-06
3.60669e-06
3.54925e-06
3.48974e-06
3.41448e-06
3.33036e-06
3.23643e-06
3.1265e-06
3.01263e-06
2.87646e-06
2.74029e-06
2.57928e-06
2.4175e-06
2.32757e-06
2.23479e-06
2.142e-06
2.04922e-06
1.94755e-06
1.84419e-06
1.74083e-06
1.63483e-06
1.52203e-06
1.40923e-06
1.29532e-06
1.17328e-06
1.05124e-06
9.24584e-07
7.92062e-07
6.55961e-07
5.10656e-07
3.55714e-07
2.75194e-07
1.88159e-07
9.7221e-08
0
)


113
(
0
2.77171e-08
5.41632e-08
8.01955e-08
1.06383e-07
1.33027e-07
1.60409e-07
1.88882e-07
2.18275e-07
2.48513e-07
2.80346e-07
3.13218e-07
3.46904e-07
3.82527e-07
4.18957e-07
4.56549e-07
4.95722e-07
5.35623e-07
5.7715e-07
6.19691e-07
6.63131e-07
7.08244e-07
7.53752e-07
7.99852e-07
8.47179e-07
8.95222e-07
9.44647e-07
9.94598e-07
1.04531e-06
1.09693e-06
1.149e-06
1.20185e-06
1.25522e-06
1.30893e-06
1.36331e-06
1.4179e-06
1.47278e-06
1.52792e-06
1.58314e-06
1.63843e-06
1.69365e-06
1.74879e-06
1.80363e-06
1.85816e-06
1.91239e-06
1.96584e-06
2.019e-06
2.07101e-06
2.12247e-06
2.17277e-06
2.22204e-06
2.27017e-06
2.31671e-06
2.36218e-06
2.40545e-06
2.44768e-06
2.48718e-06
2.52555e-06
2.56078e-06
2.59459e-06
2.62513e-06
2.65364e-06
2.679e-06
2.70145e-06
2.72127e-06
2.73682e-06
2.75067e-06
2.75851e-06
2.76601e-06
2.76528e-06
2.76455e-06
2.75593e-06
2.74579e-06
2.72921e-06
2.70884e-06
2.68393e-06
2.6525e-06
2.62007e-06
2.58275e-06
2.54543e-06
2.48975e-06
2.43226e-06
2.36658e-06
2.2963e-06
2.22103e-06
2.1376e-06
2.05219e-06
1.9555e-06
1.8588e-06
1.74928e-06
1.63936e-06
1.5794e-06
1.51787e-06
1.45633e-06
1.39479e-06
1.32765e-06
1.25943e-06
1.19121e-06
1.12101e-06
1.04567e-06
9.70341e-07
8.94052e-07
8.10744e-07
7.27437e-07
6.40153e-07
5.47808e-07
4.52729e-07
3.50619e-07
2.42253e-07
1.86141e-07
1.26382e-07
6.46697e-08
0
)


113
(
0
4.44396e-08
8.66435e-08
1.27137e-07
1.66511e-07
2.05076e-07
2.4302e-07
2.80542e-07
3.17884e-07
3.55104e-07
3.92268e-07
4.29473e-07
4.66711e-07
5.04107e-07
5.41586e-07
5.79183e-07
6.16945e-07
6.54779e-07
6.92766e-07
7.30826e-07
7.68951e-07
8.07143e-07
8.45342e-07
8.83539e-07
9.21682e-07
9.59789e-07
9.97721e-07
1.03554e-06
1.0732e-06
1.11055e-06
1.14773e-06
1.18452e-06
1.22096e-06
1.25715e-06
1.29265e-06
1.32781e-06
1.3625e-06
1.39639e-06
1.42987e-06
1.46259e-06
1.4945e-06
1.52589e-06
1.55615e-06
1.58565e-06
1.61443e-06
1.64181e-06
1.66871e-06
1.69394e-06
1.71849e-06
1.7416e-06
1.7636e-06
1.78436e-06
1.80358e-06
1.82176e-06
1.83801e-06
1.85334e-06
1.86645e-06
1.87865e-06
1.88848e-06
1.89725e-06
1.9037e-06
1.90874e-06
1.91167e-06
1.91267e-06
1.91203e-06
1.9087e-06
1.90435e-06
1.89641e-06
1.88827e-06
1.87544e-06
1.86261e-06
1.84544e-06
1.82745e-06
1.80605e-06
1.78265e-06
1.75693e-06
1.72787e-06
1.69779e-06
1.66279e-06
1.62778e-06
1.58712e-06
1.54589e-06
1.50051e-06
1.45279e-06
1.40249e-06
1.34799e-06
1.29242e-06
1.23079e-06
1.16915e-06
1.10016e-06
1.03094e-06
9.93222e-07
9.54523e-07
9.15823e-07
8.77124e-07
8.34681e-07
7.91526e-07
7.48371e-07
7.03846e-07
6.558e-07
6.07755e-07
5.59072e-07
5.05716e-07
4.52361e-07
3.96575e-07
3.37695e-07
2.77323e-07
2.13112e-07
1.45854e-07
1.113e-07
7.51302e-08
3.8154e-08
0
)


113
(
0
4.02348e-08
7.87887e-08
1.15752e-07
1.51407e-07
1.85892e-07
2.19218e-07
2.51354e-07
2.82679e-07
3.13305e-07
3.42809e-07
3.71679e-07
4.0005e-07
4.27357e-07
4.54254e-07
4.80559e-07
5.06103e-07
5.31301e-07
5.55741e-07
5.79714e-07
6.03274e-07
6.26061e-07
6.48544e-07
6.70405e-07
6.91733e-07
7.12746e-07
7.32946e-07
7.52804e-07
7.72172e-07
7.90869e-07
8.0922e-07
8.26902e-07
8.44055e-07
8.60853e-07
8.76787e-07
8.92334e-07
9.07368e-07
9.2162e-07
9.35479e-07
9.48649e-07
9.61152e-07
9.73236e-07
9.84437e-07
9.95097e-07
1.00524e-06
1.01442e-06
1.0233e-06
1.0311e-06
1.03849e-06
1.045e-06
1.05087e-06
1.05603e-06
1.06034e-06
1.06407e-06
1.06678e-06
1.06902e-06
1.07012e-06
1.07075e-06
1.07023e-06
1.06919e-06
1.06704e-06
1.06423e-06
1.06044e-06
1.05576e-06
1.05035e-06
1.04372e-06
1.03664e-06
1.02797e-06
1.01922e-06
1.00842e-06
9.97617e-07
9.84936e-07
9.71898e-07
9.57382e-07
9.41999e-07
9.25598e-07
9.07736e-07
8.89424e-07
8.68919e-07
8.48414e-07
8.2533e-07
8.01991e-07
7.767e-07
7.50311e-07
7.22671e-07
6.92989e-07
6.62772e-07
6.29522e-07
5.96272e-07
5.59276e-07
5.22163e-07
5.02032e-07
4.81403e-07
4.60775e-07
4.40146e-07
4.17682e-07
3.94869e-07
3.72055e-07
3.48612e-07
3.2355e-07
2.98487e-07
2.73157e-07
2.4586e-07
2.18564e-07
1.90345e-07
1.60951e-07
1.31047e-07
9.98287e-08
6.76583e-08
5.1287e-08
3.44459e-08
1.73819e-08
0
)


113
(
0
4.863e-09
9.61256e-09
1.4243e-08
1.87653e-08
2.31827e-08
2.74874e-08
3.16643e-08
3.57464e-08
3.97446e-08
4.35965e-08
4.73582e-08
5.10491e-08
5.45769e-08
5.80378e-08
6.14021e-08
6.46358e-08
6.7809e-08
7.08469e-08
7.37995e-08
7.66763e-08
7.94096e-08
8.2086e-08
8.4646e-08
8.71068e-08
8.95088e-08
9.17608e-08
9.39506e-08
9.60511e-08
9.80321e-08
9.99521e-08
1.01755e-07
1.03469e-07
1.05122e-07
1.06632e-07
1.0808e-07
1.09445e-07
1.10689e-07
1.11872e-07
1.12951e-07
1.13931e-07
1.1485e-07
1.15643e-07
1.16361e-07
1.17006e-07
1.17523e-07
1.17998e-07
1.18332e-07
1.18613e-07
1.18784e-07
1.18875e-07
1.18878e-07
1.18778e-07
1.18609e-07
1.18321e-07
1.17976e-07
1.17503e-07
1.16976e-07
1.16321e-07
1.15607e-07
1.14775e-07
1.1387e-07
1.12862e-07
1.1176e-07
1.10581e-07
1.09277e-07
1.07928e-07
1.0642e-07
1.04902e-07
1.03184e-07
1.01465e-07
9.95671e-08
9.76348e-08
9.55654e-08
9.34154e-08
9.11742e-08
8.88016e-08
8.63902e-08
8.37893e-08
8.11885e-08
7.83746e-08
7.55398e-08
7.25523e-08
6.94789e-08
6.63139e-08
6.29992e-08
5.96483e-08
5.60917e-08
5.25351e-08
4.87461e-08
4.495e-08
4.29637e-08
4.09496e-08
3.89354e-08
3.69213e-08
3.48152e-08
3.26915e-08
3.05679e-08
2.84161e-08
2.6192e-08
2.3968e-08
2.17332e-08
1.94203e-08
1.71074e-08
1.47615e-08
1.23736e-08
9.96924e-09
7.52216e-09
5.04644e-09
3.80004e-09
2.54028e-09
1.27442e-09
0
)

)


10
(

113
(
0
1.41195e-35
2.44575e-35
2.84022e-35
2.68075e-35
2.08197e-35
1.35134e-35
7.60335e-36
3.75216e-36
1.6068e-36
5.81401e-37
1.70154e-37
3.82444e-38
6.35833e-39
7.72781e-40
1.05364e-40
1.58222e-41
1.39334e-42
7.14047e-44
2.36176e-45
4.28786e-47
3.02996e-46
1.4024e-45
5.7452e-44
3.36128e-42
2.2259e-40
1.6036e-38
1.22466e-36
9.67504e-35
7.69657e-33
5.97315e-31
4.35732e-29
2.85421e-27
1.49955e-25
4.60742e-24
2.28954e-22
1.84897e-20
1.28995e-18
6.97722e-17
2.56066e-15
5.78395e-14
9.34604e-13
8.18622e-12
4.32598e-11
1.57165e-10
4.35716e-10
9.93231e-10
1.97537e-09
3.67082e-09
6.5572e-09
1.1376e-08
1.94393e-08
3.27504e-08
5.41348e-08
8.70012e-08
1.44517e-07
2.37288e-07
3.76233e-07
5.71371e-07
8.72786e-07
1.30707e-06
1.8613e-06
2.56638e-06
3.4802e-06
4.48768e-06
5.60022e-06
6.71704e-06
7.78187e-06
8.69564e-06
9.38266e-06
9.9382e-06
1.01181e-05
1.02031e-05
1.00491e-05
9.78935e-06
9.42535e-06
8.98089e-06
8.50528e-06
7.99029e-06
7.47104e-06
6.9479e-06
6.42813e-06
5.91962e-06
5.42007e-06
4.93475e-06
4.46458e-06
4.0066e-06
3.57091e-06
3.14265e-06
2.74602e-06
2.35957e-06
2.17823e-06
1.99688e-06
1.82181e-06
1.65808e-06
1.49435e-06
1.33653e-06
1.1909e-06
1.04528e-06
9.09601e-07
7.82399e-07
6.55898e-07
5.47165e-07
4.38432e-07
3.44916e-07
2.54177e-07
1.80055e-07
1.13785e-07
5.97315e-08
3.71412e-08
1.98426e-08
6.77836e-09
0
)


113
(
0
2.43082e-30
8.49513e-29
2.75205e-27
3.17049e-26
3.38348e-25
2.828e-24
2.25397e-23
1.6939e-22
1.03426e-21
5.82515e-21
3.16835e-20
1.48185e-19
5.88585e-19
2.0107e-18
6.64545e-18
2.56827e-17
8.90567e-17
2.93303e-16
8.79344e-16
2.42365e-15
6.16787e-15
1.4599e-14
3.80937e-14
9.66455e-14
2.32277e-13
5.24546e-13
1.14011e-12
2.39657e-12
4.86742e-12
9.59091e-12
1.84164e-11
3.44896e-11
6.34496e-11
1.15273e-10
2.07245e-10
3.6247e-10
6.18123e-10
1.05637e-09
1.75009e-09
2.85245e-09
4.6507e-09
7.38371e-09
1.16733e-08
1.80118e-08
2.75117e-08
4.11687e-08
6.08352e-08
8.89198e-08
1.28972e-07
1.83766e-07
2.57562e-07
3.54712e-07
4.79502e-07
6.35785e-07
8.40799e-07
1.09344e-06
1.39329e-06
1.74072e-06
2.15533e-06
2.62708e-06
3.14043e-06
3.69878e-06
4.29889e-06
4.91031e-06
5.53068e-06
6.12742e-06
6.69991e-06
7.21568e-06
7.65379e-06
8.04688e-06
8.28832e-06
8.4801e-06
8.54197e-06
8.51918e-06
8.41308e-06
8.20389e-06
7.95481e-06
7.60823e-06
7.24678e-06
6.8232e-06
6.39237e-06
5.93742e-06
5.48034e-06
5.01989e-06
4.56605e-06
4.11754e-06
3.68596e-06
3.26002e-06
2.86211e-06
2.47373e-06
2.29068e-06
2.10763e-06
1.93056e-06
1.7643e-06
1.59805e-06
1.43745e-06
1.28853e-06
1.13961e-06
1.00015e-06
8.68751e-07
7.38008e-07
6.23918e-07
5.09828e-07
4.09881e-07
3.12515e-07
2.30471e-07
1.55192e-07
9.05389e-08
6.21153e-08
3.80782e-08
1.7361e-08
0
)


113
(
0
5.51962e-15
2.12019e-14
6.18938e-14
1.47685e-13
3.13941e-13
6.52668e-13
1.27022e-12
2.38178e-12
4.31401e-12
7.5848e-12
1.29698e-11
2.15849e-11
3.4969e-11
5.52335e-11
8.67865e-11
1.35065e-10
2.09468e-10
3.14385e-10
4.67012e-10
6.84888e-10
9.82725e-10
1.40015e-09
1.99929e-09
2.81975e-09
3.93115e-09
5.41739e-09
7.38583e-09
9.98476e-09
1.33602e-08
1.76999e-08
2.33457e-08
3.03574e-08
3.94533e-08
5.0644e-08
6.48955e-08
8.2172e-08
1.03628e-07
1.29572e-07
1.61038e-07
1.9866e-07
2.43259e-07
2.96905e-07
3.58244e-07
4.31737e-07
5.14055e-07
6.10102e-07
7.18429e-07
8.41784e-07
9.81536e-07
1.13547e-06
1.30725e-06
1.49439e-06
1.69616e-06
1.91497e-06
2.15123e-06
2.4023e-06
2.66549e-06
2.93915e-06
3.22387e-06
3.51492e-06
3.80923e-06
4.10584e-06
4.39829e-06
4.68514e-06
4.96382e-06
5.22301e-06
5.46975e-06
5.69134e-06
5.88495e-06
6.06235e-06
6.18733e-06
6.29458e-06
6.35526e-06
6.38182e-06
6.37479e-06
6.31745e-06
6.24064e-06
6.10268e-06
5.95364e-06
5.7443e-06
5.52277e-06
5.26065e-06
4.98324e-06
4.68153e-06
4.36446e-06
4.03501e-06
3.69326e-06
3.3474e-06
3.00006e-06
2.65507e-06
2.48541e-06
2.31576e-06
2.14878e-06
1.98664e-06
1.8245e-06
1.66545e-06
1.51277e-06
1.36009e-06
1.2136e-06
1.07239e-06
9.31719e-07
8.04641e-07
6.77563e-07
5.61138e-07
4.46657e-07
3.43715e-07
2.46238e-07
1.57248e-07
1.15804e-07
7.7503e-08
4.01639e-08
0
)


113
(
0
6.73915e-11
1.63514e-10
3.10118e-10
5.17148e-10
8.03234e-10
1.19199e-09
1.7115e-09
2.39448e-09
3.27835e-09
4.40556e-09
5.82414e-09
7.5887e-09
9.76722e-09
1.24311e-08
1.56412e-08
1.96998e-08
2.44921e-08
3.01496e-08
3.68888e-08
4.48139e-08
5.39012e-08
6.44453e-08
7.72956e-08
9.19031e-08
1.08391e-07
1.27482e-07
1.49173e-07
1.73663e-07
2.01423e-07
2.32436e-07
2.67108e-07
3.05987e-07
3.48669e-07
3.97399e-07
4.48952e-07
5.06611e-07
5.71374e-07
6.38301e-07
7.12744e-07
7.9364e-07
8.80387e-07
9.73683e-07
1.07342e-06
1.17797e-06
1.292e-06
1.40923e-06
1.53355e-06
1.66265e-06
1.79974e-06
1.93954e-06
2.08717e-06
2.23824e-06
2.39041e-06
2.54634e-06
2.70531e-06
2.86621e-06
3.02729e-06
3.18769e-06
3.34623e-06
3.50247e-06
3.65583e-06
3.80498e-06
3.94612e-06
4.08143e-06
4.20908e-06
4.32404e-06
4.43171e-06
4.52536e-06
4.60471e-06
4.67579e-06
4.7226e-06
4.76147e-06
4.77954e-06
4.78249e-06
4.77058e-06
4.73109e-06
4.68093e-06
4.60373e-06
4.52116e-06
4.4061e-06
4.28377e-06
4.13729e-06
3.9784e-06
3.79978e-06
3.60486e-06
3.39681e-06
3.17056e-06
2.93826e-06
2.69506e-06
2.44864e-06
2.32168e-06
2.19471e-06
2.06685e-06
1.93733e-06
1.80782e-06
1.6783e-06
1.54875e-06
1.41919e-06
1.29078e-06
1.16334e-06
1.03606e-06
9.12543e-07
7.89032e-07
6.70086e-07
5.5198e-07
4.39777e-07
3.3012e-07
2.23606e-07
1.70977e-07
1.17515e-07
6.16743e-08
0
)


113
(
0
2.64552e-09
5.48906e-09
8.8581e-09
1.28336e-08
1.75235e-08
2.30277e-08
2.94337e-08
3.6822e-08
4.52692e-08
5.48511e-08
6.56451e-08
7.77292e-08
9.11865e-08
1.061e-07
1.22678e-07
1.41139e-07
1.61379e-07
1.83489e-07
2.07564e-07
2.337e-07
2.61996e-07
2.92555e-07
3.25847e-07
3.6211e-07
4.00636e-07
4.4291e-07
4.87383e-07
5.33725e-07
5.83409e-07
6.35614e-07
6.89986e-07
7.49153e-07
8.08962e-07
8.74573e-07
9.397e-07
1.00983e-06
1.08351e-06
1.15687e-06
1.23628e-06
1.31428e-06
1.40064e-06
1.48168e-06
1.57005e-06
1.65839e-06
1.74927e-06
1.84032e-06
1.93403e-06
2.02998e-06
2.1246e-06
2.21897e-06
2.31456e-06
2.4107e-06
2.50624e-06
2.60048e-06
2.69306e-06
2.78348e-06
2.87208e-06
2.95881e-06
3.04215e-06
3.12155e-06
3.1975e-06
3.26924e-06
3.33392e-06
3.39476e-06
3.45096e-06
3.50002e-06
3.54415e-06
3.57803e-06
3.60315e-06
3.62319e-06
3.6306e-06
3.63288e-06
3.62142e-06
3.60023e-06
3.56945e-06
3.52814e-06
3.48275e-06
3.42269e-06
3.35972e-06
3.27932e-06
3.19454e-06
3.09524e-06
2.98881e-06
2.87105e-06
2.74357e-06
2.60827e-06
2.46085e-06
2.30941e-06
2.14379e-06
1.9745e-06
1.88561e-06
1.79671e-06
1.70615e-06
1.61257e-06
1.51898e-06
1.42435e-06
1.32756e-06
1.23077e-06
1.13307e-06
1.03458e-06
9.3607e-07
8.37084e-07
7.38098e-07
6.39063e-07
5.40013e-07
4.40214e-07
3.39115e-07
2.35085e-07
1.81461e-07
1.24786e-07
6.49502e-08
0
)


113
(
0
1.39855e-08
2.75198e-08
4.15207e-08
5.63423e-08
7.22335e-08
8.93695e-08
1.07859e-07
1.27763e-07
1.49114e-07
1.71926e-07
1.9621e-07
2.21969e-07
2.49213e-07
2.77945e-07
3.08281e-07
3.40317e-07
3.73866e-07
4.08928e-07
4.45502e-07
4.83589e-07
5.23187e-07
5.64294e-07
6.07122e-07
6.51408e-07
6.9713e-07
7.44266e-07
7.92786e-07
8.42656e-07
8.93838e-07
9.46285e-07
9.99946e-07
1.05477e-06
1.11071e-06
1.16815e-06
1.22606e-06
1.28485e-06
1.3444e-06
1.40463e-06
1.46545e-06
1.52677e-06
1.58849e-06
1.65049e-06
1.7152e-06
1.79593e-06
1.86669e-06
1.9329e-06
1.99768e-06
2.0602e-06
2.12191e-06
2.18069e-06
2.23713e-06
2.29126e-06
2.34243e-06
2.38982e-06
2.43264e-06
2.47073e-06
2.49376e-06
2.50524e-06
2.54331e-06
2.57824e-06
2.61055e-06
2.63972e-06
2.66428e-06
2.68599e-06
2.7041e-06
2.71742e-06
2.72767e-06
2.7317e-06
2.73095e-06
2.72743e-06
2.716e-06
2.70204e-06
2.68147e-06
2.65613e-06
2.6261e-06
2.58886e-06
2.54882e-06
2.49926e-06
2.44793e-06
2.3866e-06
2.32273e-06
2.2504e-06
2.17383e-06
2.09052e-06
2.00126e-06
1.90721e-06
1.8055e-06
1.70125e-06
1.58768e-06
1.47159e-06
1.4106e-06
1.34961e-06
1.28735e-06
1.2228e-06
1.15824e-06
1.09271e-06
1.02515e-06
9.5759e-07
8.8859e-07
8.18364e-07
7.48034e-07
6.75092e-07
6.02149e-07
5.26438e-07
4.50213e-07
3.69847e-07
2.86812e-07
1.99161e-07
1.53389e-07
1.04859e-07
5.40256e-08
0
)


113
(
0
3.01062e-08
5.84076e-08
8.59043e-08
1.13235e-07
1.40749e-07
1.68701e-07
1.97266e-07
2.26551e-07
2.56617e-07
2.87493e-07
3.19188e-07
3.51699e-07
3.85017e-07
4.19124e-07
4.54056e-07
4.89823e-07
5.26302e-07
5.63463e-07
6.01277e-07
6.39714e-07
6.78744e-07
7.18335e-07
7.54369e-07
7.93724e-07
8.33881e-07
8.74323e-07
9.14999e-07
9.55861e-07
9.96854e-07
1.03793e-06
1.07902e-06
1.12008e-06
1.16104e-06
1.20185e-06
1.24243e-06
1.28272e-06
1.32267e-06
1.3622e-06
1.40125e-06
1.43976e-06
1.47763e-06
1.51479e-06
1.5512e-06
1.58677e-06
1.62144e-06
1.65513e-06
1.68778e-06
1.71924e-06
1.74943e-06
1.77833e-06
1.80587e-06
1.83199e-06
1.85665e-06
1.87982e-06
1.90097e-06
1.92032e-06
1.93799e-06
1.95397e-06
1.96758e-06
1.97897e-06
1.98856e-06
1.99603e-06
2.00046e-06
2.00306e-06
2.00336e-06
2.00028e-06
1.99546e-06
1.98746e-06
1.97655e-06
1.96396e-06
1.94665e-06
1.92785e-06
1.90517e-06
1.87974e-06
1.8516e-06
1.81936e-06
1.78551e-06
1.75098e-06
1.71544e-06
1.6685e-06
1.62019e-06
1.56737e-06
1.51227e-06
1.45357e-06
1.39167e-06
1.32718e-06
1.25847e-06
1.18835e-06
1.11285e-06
1.03575e-06
9.95341e-07
9.54931e-07
9.13592e-07
8.70571e-07
8.2755e-07
7.83651e-07
7.37935e-07
6.9222e-07
6.44929e-07
5.96296e-07
5.47537e-07
4.95619e-07
4.43702e-07
3.88606e-07
3.32926e-07
2.73164e-07
2.11199e-07
1.45688e-07
1.11576e-07
7.57726e-08
3.86991e-08
0
)


113
(
0
3.83751e-08
7.45232e-08
1.08952e-07
1.42212e-07
1.74553e-07
2.06177e-07
2.37259e-07
2.67935e-07
2.98308e-07
3.28452e-07
3.58422e-07
3.88253e-07
4.17971e-07
4.47591e-07
4.77115e-07
5.0654e-07
5.35869e-07
5.65095e-07
5.94203e-07
6.2318e-07
6.52006e-07
6.80662e-07
7.0909e-07
7.37296e-07
7.65253e-07
7.92937e-07
8.20319e-07
8.47371e-07
8.74063e-07
9.00366e-07
9.2625e-07
9.51684e-07
9.76635e-07
1.00107e-06
1.02495e-06
1.04826e-06
1.07096e-06
1.09303e-06
1.11443e-06
1.13514e-06
1.15511e-06
1.1743e-06
1.19271e-06
1.2103e-06
1.22705e-06
1.24294e-06
1.25792e-06
1.27192e-06
1.2849e-06
1.2969e-06
1.30787e-06
1.3178e-06
1.3267e-06
1.33456e-06
1.34105e-06
1.34636e-06
1.35057e-06
1.35371e-06
1.35536e-06
1.35566e-06
1.35487e-06
1.35282e-06
1.349e-06
1.34413e-06
1.33794e-06
1.32987e-06
1.32084e-06
1.31007e-06
1.29774e-06
1.28451e-06
1.26878e-06
1.25229e-06
1.23378e-06
1.21386e-06
1.19256e-06
1.16917e-06
1.14497e-06
1.11807e-06
1.09066e-06
1.06044e-06
1.02949e-06
9.96134e-07
9.61549e-07
9.25002e-07
8.86644e-07
8.46827e-07
8.04482e-07
7.61295e-07
7.1463e-07
6.66845e-07
6.41644e-07
6.16444e-07
5.90537e-07
5.63352e-07
5.36168e-07
5.08283e-07
4.78952e-07
4.4962e-07
4.19032e-07
3.87374e-07
3.55621e-07
3.21473e-07
2.87324e-07
2.50966e-07
2.14205e-07
1.74892e-07
1.34342e-07
9.18777e-08
6.99567e-08
4.72399e-08
2.39625e-08
0
)


113
(
0
2.99424e-08
5.85276e-08
8.58427e-08
1.12124e-07
1.37435e-07
1.61838e-07
1.85402e-07
2.08197e-07
2.30284e-07
2.51719e-07
2.72546e-07
2.92804e-07
3.12523e-07
3.31729e-07
3.50412e-07
3.68565e-07
3.86267e-07
4.03527e-07
4.20358e-07
4.36764e-07
4.52753e-07
4.68328e-07
4.8343e-07
4.98129e-07
5.12426e-07
5.2632e-07
5.3981e-07
5.52895e-07
5.65571e-07
5.77837e-07
5.89688e-07
6.01122e-07
6.12133e-07
6.22718e-07
6.32862e-07
6.42571e-07
6.51843e-07
6.60674e-07
6.69058e-07
6.76992e-07
6.84454e-07
6.91447e-07
6.9797e-07
7.04021e-07
7.09594e-07
7.14685e-07
7.19291e-07
7.2337e-07
7.26923e-07
7.29971e-07
7.32504e-07
7.34527e-07
7.36043e-07
7.37059e-07
7.37427e-07
7.37243e-07
7.36553e-07
7.35371e-07
7.33516e-07
7.31058e-07
7.28117e-07
7.24616e-07
7.20342e-07
7.1561e-07
7.10309e-07
7.04196e-07
6.97668e-07
6.90391e-07
6.82442e-07
6.74104e-07
6.6469e-07
6.54938e-07
6.44311e-07
6.33061e-07
6.21198e-07
6.08397e-07
5.95233e-07
5.8082e-07
5.66172e-07
5.50183e-07
5.33838e-07
5.16312e-07
4.98157e-07
4.79002e-07
4.58889e-07
4.38005e-07
4.15745e-07
3.93027e-07
3.68379e-07
3.4311e-07
3.2975e-07
3.16389e-07
3.02644e-07
2.88205e-07
2.73765e-07
2.58961e-07
2.43404e-07
2.27847e-07
2.11677e-07
1.94985e-07
1.78251e-07
1.60438e-07
1.42625e-07
1.23903e-07
1.05016e-07
8.51684e-08
6.48928e-08
4.39725e-08
3.3291e-08
2.23672e-08
1.12802e-08
0
)


113
(
0
3.26183e-09
6.44573e-09
9.5486e-09
1.25791e-08
1.55357e-08
1.84174e-08
2.12242e-08
2.39569e-08
2.66169e-08
2.92056e-08
3.17242e-08
3.41739e-08
3.65555e-08
3.88698e-08
4.11127e-08
4.3281e-08
4.53837e-08
4.74213e-08
4.93941e-08
5.13024e-08
5.31463e-08
5.4926e-08
5.66319e-08
5.82748e-08
5.9855e-08
6.13725e-08
6.28274e-08
6.42198e-08
6.55499e-08
6.68178e-08
6.80236e-08
6.91675e-08
7.02496e-08
7.12699e-08
7.22273e-08
7.31235e-08
7.3959e-08
7.47341e-08
7.54489e-08
7.61035e-08
7.66961e-08
7.7228e-08
7.76998e-08
7.81119e-08
7.84646e-08
7.87579e-08
7.89922e-08
7.91633e-08
7.92721e-08
7.93216e-08
7.93116e-08
7.9243e-08
7.91168e-08
7.89344e-08
7.86797e-08
7.83643e-08
7.79937e-08
7.75697e-08
7.70735e-08
7.6513e-08
7.59016e-08
7.52313e-08
7.44809e-08
7.36833e-08
7.28272e-08
7.18887e-08
7.09086e-08
6.98534e-08
6.87318e-08
6.75717e-08
6.63069e-08
6.50097e-08
6.36287e-08
6.21892e-08
6.06922e-08
5.91092e-08
5.74927e-08
5.57648e-08
5.40161e-08
5.21514e-08
5.02572e-08
4.82646e-08
4.6222e-08
4.41e-08
4.19059e-08
3.96537e-08
3.73043e-08
3.49224e-08
3.24137e-08
2.98671e-08
2.85498e-08
2.72324e-08
2.58937e-08
2.45163e-08
2.31389e-08
2.17431e-08
2.0309e-08
1.8875e-08
1.74127e-08
1.59263e-08
1.44381e-08
1.29046e-08
1.13711e-08
9.80269e-09
8.22792e-09
6.6191e-09
4.9961e-09
3.35221e-09
2.52334e-09
1.68721e-09
8.46348e-10
0
)

)


10
(

113
(
0
5.95611e-44
1.13e-43
1.44184e-43
1.51741e-43
1.35731e-43
1.014e-43
6.46792e-44
3.59459e-44
1.73913e-44
7.05825e-45
2.56417e-45
1.5825e-45
3.67846e-45
1.43631e-44
1.04833e-43
9.645e-43
9.60154e-42
6.79333e-41
4.75267e-40
8.328e-39
1.654e-37
3.50933e-36
6.14454e-35
3.19222e-34
9.98625e-33
3.23417e-31
1.02346e-29
2.8785e-28
5.165e-27
4.6015e-26
1.91547e-24
7.211e-23
2.4335e-21
7.612e-20
2.27073e-18
5.47373e-17
9.17273e-16
7.43e-15
1.42494e-13
1.902e-12
1.8538e-11
1.15982e-10
5.563e-10
2.00909e-09
5.78364e-09
1.422e-08
3.03e-08
5.69167e-08
1e-07
1.72308e-07
2.90833e-07
4.7e-07
7.13714e-07
1.05229e-06
1.53143e-06
2.13429e-06
2.87e-06
3.75667e-06
4.67813e-06
5.63437e-06
6.60188e-06
7.53125e-06
8.36875e-06
8.99882e-06
9.54e-06
9.78444e-06
9.97778e-06
9.96667e-06
9.87333e-06
9.65667e-06
9.36789e-06
9.03105e-06
8.63895e-06
8.22316e-06
7.8e-06
7.375e-06
6.938e-06
6.498e-06
6.066e-06
5.636e-06
5.218e-06
4.803e-06
4.39579e-06
3.99053e-06
3.626e-06
3.266e-06
2.9e-06
2.53833e-06
2.22167e-06
1.91176e-06
1.76471e-06
1.61765e-06
1.47375e-06
1.3425e-06
1.21125e-06
1.08e-06
9.69e-07
8.58e-07
7.47e-07
6.40333e-07
5.33667e-07
4.40273e-07
3.55727e-07
2.76778e-07
2.06222e-07
1.43286e-07
8.90833e-08
4.95e-08
3.33125e-08
1.71e-08
5.98e-09
0
)


113
(
0
4.57415e-29
1.8394e-27
3.48989e-26
3.77685e-25
3.82432e-24
3.38974e-23
3.0069e-22
2.01268e-21
1.4659e-20
8.76502e-20
4.36197e-19
1.87261e-18
6.96078e-18
2.71772e-17
1.06921e-16
3.94556e-16
1.36489e-15
3.677e-15
1.05859e-14
3.44081e-14
9.37215e-14
2.36176e-13
5.71865e-13
1.3161e-12
3.21728e-12
7.40245e-12
1.61684e-11
3.34259e-11
6.53715e-11
1.2798e-10
2.48785e-10
4.79779e-10
8.88242e-10
1.56941e-09
2.6974e-09
4.50768e-09
7.45902e-09
1.2019e-08
1.92041e-08
3.01273e-08
4.59935e-08
6.92095e-08
1.01718e-07
1.47403e-07
2.09015e-07
2.91107e-07
3.98888e-07
5.3449e-07
7.03309e-07
9.23197e-07
1.1838e-06
1.49326e-06
1.84792e-06
2.25769e-06
2.72163e-06
3.22187e-06
3.75623e-06
4.32975e-06
4.90946e-06
5.49535e-06
6.05983e-06
6.60336e-06
7.10354e-06
7.53454e-06
7.93589e-06
8.20502e-06
8.44437e-06
8.56459e-06
8.62676e-06
8.60184e-06
8.49916e-06
8.34462e-06
8.11677e-06
7.85751e-06
7.53864e-06
7.20487e-06
6.8355e-06
6.45724e-06
6.06358e-06
5.66608e-06
5.26745e-06
4.86853e-06
4.47754e-06
4.08853e-06
3.71534e-06
3.34391e-06
2.99251e-06
2.64586e-06
2.32196e-06
2.00641e-06
1.85838e-06
1.71035e-06
1.56522e-06
1.4317e-06
1.29818e-06
1.16466e-06
1.04614e-06
9.27618e-07
8.09098e-07
7.0506e-07
6.01021e-07
5.05437e-07
4.15489e-07
3.31109e-07
2.55081e-07
1.86634e-07
1.25381e-07