/*--------------------------------*- C++ -*----------------------------------*\
| =========                 |                                                 |
| \\      /  F ield         | OpenFOAM: The Open Source CFD Toolbox           |
|  \\    /   O peration     | Version:  2.3.0                                 |
|   \\  /    A nd           | Web:      www.OpenFOAM.org                      |
|    \\/     M anipulation  |                                                 |
\*---------------------------------------------------------------------------*/
FoamFile
{
    version     2.0;
    format      ascii;
    class       dictionary;
    location    "constant";
    object      CH3CHO;
}
// * * * * * * * * * * * * * * * * * * * * * * * * * * * * * * * * * * * * * //

CH3CHO_table
13
(

10
(

113
(
0
3.21833e-31
7.89663e-31
1.3582e-30
1.89719e-30
2.28548e-30
2.38865e-30
2.10766e-30
1.64876e-30
1.07157e-30
5.22563e-31
2.07733e-31
7.69e-32
3.47805e-32
7.54512e-33
1.72835e-33
3.19405e-34
1.41141e-34
5.91385e-34
4.9965e-33
1.29088e-32
2.48194e-31
4.04553e-30
1.79091e-29
6.341e-28
3.12814e-27
8.1035e-26
2.94683e-24
9.82447e-24
4.98647e-22
1.13645e-20
6.08145e-20
2.19012e-18
9.33371e-18
1.97019e-16
3.59595e-15
1.12516e-14
2.20919e-13
1.98753e-12
7.86728e-12
5.37753e-11
1.35565e-10
3.48609e-10
5.63246e-10
7.79413e-10
8.8489e-10
9.62397e-10
9.84184e-10
1.00955e-09
1.04252e-09
1.11278e-09
1.22508e-09
1.4325e-09
1.70333e-09
2.21112e-09
2.83041e-09
4.00822e-09
5.41416e-09
8.06667e-09
1.12792e-08
1.71352e-08
2.46114e-08
3.71421e-08
5.43383e-08
7.99537e-08
1.19306e-07
1.68468e-07
2.52413e-07
3.39545e-07
5.03182e-07
6.66818e-07
9.16113e-07
1.18172e-06
1.48432e-06
1.80865e-06
2.10982e-06
2.37768e-06
2.62633e-06
2.78119e-06
2.93606e-06
3.01414e-06
3.08463e-06
3.1015e-06
3.08823e-06
3.0374e-06
2.92529e-06
2.79904e-06
2.59261e-06
2.38619e-06
2.13402e-06
1.88043e-06
1.75694e-06
1.63449e-06
1.51204e-06
1.38959e-06
1.2742e-06
1.16016e-06
1.04611e-06
9.35114e-07
8.31949e-07
7.28785e-07
6.26985e-07
5.35194e-07
4.43403e-07
3.57167e-07
2.78e-07
2.02333e-07
1.35667e-07
7.73482e-08
5.07571e-08
2.89714e-08
1.10148e-08
0
)


113
(
0
1.89254e-28
6.45518e-27
1.85758e-25
2.05549e-24
1.91359e-23
1.03937e-22
8.40484e-22
7.0375e-21
2.56931e-20
1.43892e-19
7.67537e-19
1.78832e-18
9.10661e-18
3.40955e-17
8.45128e-17
3.25977e-16
7.9617e-16
2.14991e-15
6.3729e-15
1.31403e-14
3.75439e-14
7.93699e-14
1.65205e-13
3.58586e-13
6.20855e-13
1.29439e-12
2.35334e-12
3.96692e-12
7.05757e-12
1.12203e-11
1.80267e-11
2.82594e-11
4.08435e-11
6.13022e-11
8.65168e-11
1.18036e-10
1.61092e-10
2.10558e-10
2.7185e-10
3.46443e-10
4.30124e-10
5.36628e-10
6.63776e-10
8.1076e-10
1.02484e-09
1.26911e-09
1.65436e-09
2.14216e-09
2.84789e-09
3.86584e-09
5.23587e-09
7.37928e-09
1.00383e-08
1.43716e-08
1.94928e-08
2.78707e-08
3.75788e-08
5.28968e-08
7.07352e-08
9.70119e-08
1.28461e-07
1.70844e-07
2.23321e-07
2.86928e-07
3.68692e-07
4.58388e-07
5.76202e-07
6.95502e-07
8.50464e-07
1.00543e-06
1.18511e-06
1.36951e-06
1.56046e-06
1.75526e-06
1.94386e-06
2.12354e-06
2.29598e-06
2.43305e-06
2.57012e-06
2.64814e-06
2.72031e-06
2.74312e-06
2.73814e-06
2.70368e-06
2.62112e-06
2.5285e-06
2.37895e-06
2.22939e-06
2.03515e-06
1.83952e-06
1.73353e-06
1.62495e-06
1.51637e-06
1.40779e-06
1.29899e-06
1.19015e-06
1.08132e-06
9.74255e-07
8.71769e-07
7.69283e-07
6.67965e-07
5.75205e-07
4.82446e-07
3.94567e-07
3.129e-07
2.34347e-07
1.63802e-07
9.98629e-08
6.99506e-08
4.41258e-08
2.07125e-08
0
)


113
(
0
9.69544e-16
3.40111e-15
8.94042e-15
1.96638e-14
3.84794e-14
7.05786e-14
1.32565e-13
2.29955e-13
3.6416e-13
5.98603e-13
9.52088e-13
1.39911e-12
2.21886e-12
3.28539e-12
4.70703e-12
7.05217e-12
9.89677e-12
1.40527e-11
2.0139e-11
2.79374e-11
3.92611e-11
5.31722e-11
7.33325e-11
1.02054e-10
1.35947e-10
1.87237e-10
2.51947e-10
3.35968e-10
4.577e-10
6.03637e-10
8.0517e-10
1.07599e-09
1.39439e-09
1.87353e-09
2.44575e-09
3.14134e-09
4.15429e-09
5.33118e-09
6.79988e-09
8.83309e-09
1.12068e-08
1.4217e-08
1.79637e-08
2.24179e-08
2.81671e-08
3.44614e-08
4.31704e-08
5.28939e-08
6.47732e-08
7.8693e-08
9.49138e-08
1.1462e-07
1.3665e-07
1.63296e-07
1.92114e-07
2.27182e-07
2.64803e-07
3.09494e-07
3.57362e-07
4.12428e-07
4.71904e-07
5.37641e-07
6.09158e-07
6.85156e-07
7.68466e-07
8.54039e-07
9.47635e-07
1.04151e-06
1.14206e-06
1.24261e-06
1.34452e-06
1.44669e-06
1.54585e-06
1.64325e-06
1.73535e-06
1.81982e-06
1.90056e-06
1.96308e-06
2.02561e-06
2.06079e-06
2.09326e-06
2.10205e-06
2.09753e-06
2.07754e-06
2.0323e-06
1.98122e-06
1.89706e-06
1.81289e-06
1.69407e-06
1.57419e-06
1.50404e-06
1.43068e-06
1.35731e-06
1.28394e-06
1.20346e-06
1.12162e-06
1.03979e-06
9.56628e-07
8.7007e-07
7.83513e-07
6.97175e-07
6.12452e-07
5.27728e-07
4.44573e-07
3.63414e-07
2.83724e-07
2.07812e-07
1.35892e-07
1.0114e-07
6.84562e-08
3.58108e-08
0
)


113
(
0
3.18302e-12
7.8364e-12
1.50693e-11
2.55596e-11
4.01419e-11
6.03719e-11
8.95637e-11
1.27699e-10
1.74614e-10
2.42095e-10
3.27471e-10
4.26906e-10
5.75239e-10
7.45915e-10
9.48744e-10
1.22807e-09
1.54482e-09
1.95091e-09
2.444e-09
3.01423e-09
3.76199e-09
4.59319e-09
5.60575e-09
6.87293e-09
8.28988e-09
1.00268e-08
1.19907e-08
1.42813e-08
1.70316e-08
2.00523e-08
2.36571e-08
2.78258e-08
3.23756e-08
3.7936e-08
4.41131e-08
5.11076e-08
5.91548e-08
6.78483e-08
7.77872e-08
8.89462e-08
1.00986e-07
1.15462e-07
1.3076e-07
1.46849e-07
1.66045e-07
1.86108e-07
2.08389e-07
2.31992e-07
2.58405e-07
2.86437e-07
3.16296e-07
3.49039e-07
3.83705e-07
4.21095e-07
4.59768e-07
5.02004e-07
5.45696e-07
5.91964e-07
6.3939e-07
6.89404e-07
7.41005e-07
7.94044e-07
8.48412e-07
9.03553e-07
9.59954e-07
1.01642e-06
1.07309e-06
1.12969e-06
1.18467e-06
1.23965e-06
1.29113e-06
1.34194e-06
1.38833e-06
1.43213e-06
1.47192e-06
1.50594e-06
1.53774e-06
1.55865e-06
1.57957e-06
1.58587e-06
1.59072e-06
1.5835e-06
1.56949e-06
1.54693e-06
1.51042e-06
1.47067e-06
1.41257e-06
1.35447e-06
1.2776e-06
1.20014e-06
1.15431e-06
1.10623e-06
1.05815e-06
1.01007e-06
9.55525e-07
8.99753e-07
8.43981e-07
7.86628e-07
7.25212e-07
6.63795e-07
6.01978e-07
5.37217e-07
4.72456e-07
4.07253e-07
3.41488e-07
2.75832e-07
2.10458e-07
1.44777e-07
1.1173e-07
7.72206e-08
4.08342e-08
0
)


113
(
0
2.68195e-10
5.65069e-10
9.24968e-10
1.35974e-09
1.87923e-09
2.50251e-09
3.26383e-09
4.14262e-09
5.13059e-09
6.33796e-09
7.70488e-09
9.19716e-09
1.10291e-08
1.30248e-08
1.5256e-08
1.78595e-08
2.06473e-08
2.38808e-08
2.74376e-08
3.12811e-08
3.57438e-08
4.04747e-08
4.57737e-08
5.17594e-08
5.8146e-08
6.52556e-08
7.2836e-08
8.1094e-08
8.99406e-08
9.9232e-08
1.09644e-07
1.21137e-07
1.33325e-07
1.45619e-07
1.59082e-07
1.74097e-07
1.89702e-07
2.05815e-07
2.23023e-07
2.41641e-07
2.6103e-07
2.81429e-07
3.031e-07
3.25995e-07
3.49312e-07
3.72948e-07
3.98507e-07
4.24883e-07
4.52997e-07
4.81608e-07
5.10781e-07
5.40534e-07
5.70674e-07
6.02499e-07
6.35116e-07
6.67854e-07
7.00642e-07
7.3401e-07
7.6764e-07
8.01326e-07
8.35047e-07
8.68521e-07
9.01767e-07
9.3441e-07
9.66071e-07
9.97338e-07
1.02721e-06
1.05692e-06
1.08291e-06
1.1089e-06
1.13022e-06
1.15065e-06
1.16809e-06
1.18379e-06
1.19581e-06
1.20254e-06
1.20821e-06
1.20864e-06
1.20906e-06
1.20086e-06
1.19179e-06
1.17594e-06
1.15626e-06
1.13223e-06
1.10107e-06
1.06811e-06
1.02496e-06
9.81799e-07
9.26976e-07
8.71792e-07
8.39868e-07
8.06575e-07
7.73282e-07
7.39989e-07
7.02491e-07
6.64193e-07
6.25895e-07
5.86479e-07
5.44193e-07
5.01906e-07
4.59269e-07
4.14061e-07
3.68853e-07
3.22609e-07
2.75046e-07
2.26697e-07
1.76326e-07
1.23261e-07
9.58306e-08
6.60514e-08
3.45632e-08
0
)


113
(
0
2.34343e-09
4.66018e-09
7.0993e-09
9.72515e-09
1.25735e-08
1.56951e-08
1.91648e-08
2.29131e-08
2.69143e-08
3.13866e-08
3.617e-08
4.11978e-08
4.68256e-08
5.27159e-08
5.89838e-08
6.57948e-08
7.2863e-08
8.05249e-08
8.85812e-08
9.69873e-08
1.06087e-07
1.1547e-07
1.2544e-07
1.35927e-07
1.46722e-07
1.58323e-07
1.70265e-07
1.82698e-07
1.95799e-07
2.09243e-07
2.23346e-07
2.37956e-07
2.52916e-07
2.69097e-07
2.85454e-07
3.02046e-07
3.19299e-07
3.36871e-07
3.54991e-07
3.73603e-07
3.92517e-07
4.12028e-07
4.33644e-07
4.57284e-07
4.79441e-07
5.01339e-07
5.2343e-07
5.45356e-07
5.6693e-07
5.88632e-07
6.10478e-07
6.31714e-07
6.52543e-07
6.72244e-07
6.91416e-07
7.05747e-07
7.18102e-07
7.35163e-07
7.5434e-07
7.72772e-07
7.90747e-07
8.07894e-07
8.24279e-07
8.39897e-07
8.54264e-07
8.68172e-07
8.80455e-07
8.92596e-07
9.01362e-07
9.10127e-07
9.1601e-07
9.21344e-07
9.24181e-07
9.25551e-07
9.25068e-07
9.21919e-07
9.17903e-07
9.0966e-07
9.01416e-07
8.88027e-07
8.74129e-07
8.56298e-07
8.36255e-07
8.13738e-07
7.87182e-07
7.59621e-07
7.26363e-07
6.93105e-07
6.53414e-07
6.13523e-07
5.91198e-07
5.68123e-07
5.45047e-07
5.21971e-07
4.96515e-07
4.70605e-07
4.44695e-07
4.18065e-07
3.89582e-07
3.61099e-07
3.32311e-07
3.01287e-07
2.70263e-07
2.3798e-07
2.04094e-07
1.69241e-07
1.31906e-07
9.19948e-08
7.12257e-08
4.87263e-08
2.51937e-08
0
)


113
(
0
6.96569e-09
1.36057e-08
2.01355e-08
2.66988e-08
3.33714e-08
4.02234e-08
4.73426e-08
5.46877e-08
6.22403e-08
7.0185e-08
7.83849e-08
8.67854e-08
9.56618e-08
1.04737e-07
1.14097e-07
1.23847e-07
1.33775e-07
1.44103e-07
1.5468e-07
1.65478e-07
1.76688e-07
1.87873e-07
1.98856e-07
2.10423e-07
2.22325e-07
2.3457e-07
2.46946e-07
2.5951e-07
2.72303e-07
2.85206e-07
2.98308e-07
3.1154e-07
3.2486e-07
3.38351e-07
3.51898e-07
3.6552e-07
3.79215e-07
3.92932e-07
4.06676e-07
4.2041e-07
4.34131e-07
4.47789e-07
4.61378e-07
4.749e-07
4.88244e-07
5.01521e-07
5.14531e-07
5.27412e-07
5.4002e-07
5.52387e-07
5.64482e-07
5.76197e-07
5.87659e-07
5.98595e-07
6.09283e-07
6.19312e-07
6.29071e-07
6.38071e-07
6.46729e-07
6.54591e-07
6.61965e-07
6.6857e-07
6.74464e-07
6.79718e-07
6.83927e-07
6.8772e-07
6.90035e-07
6.92265e-07
6.92468e-07
6.92672e-07
6.90916e-07
6.88788e-07
6.85055e-07
6.8038e-07
6.7457e-07
6.67127e-07
6.59468e-07
6.50754e-07
6.42041e-07
6.28487e-07
6.14455e-07
5.98337e-07
5.81046e-07
5.62474e-07
5.41812e-07
5.20636e-07
4.96545e-07
4.72455e-07
4.45024e-07
4.17491e-07
4.02413e-07
3.86922e-07
3.7143e-07
3.55939e-07
3.38969e-07
3.21717e-07
3.04465e-07
2.86686e-07
2.67553e-07
2.4842e-07
2.29035e-07
2.07796e-07
1.86558e-07
1.64272e-07
1.40654e-07
1.16318e-07
9.01363e-08
6.23159e-08
4.79006e-08
3.25314e-08
1.66519e-08
0
)


113
(
0
1.10669e-08
2.1578e-08
3.16645e-08
4.14729e-08
5.10813e-08
6.05365e-08
6.98882e-08
7.91965e-08
8.84758e-08
9.77436e-08
1.07023e-07
1.16313e-07
1.25645e-07
1.35e-07
1.44386e-07
1.53817e-07
1.63268e-07
1.72761e-07
1.82274e-07
1.91807e-07
2.01361e-07
2.10918e-07
2.2048e-07
2.30032e-07
2.39578e-07
2.49087e-07
2.5857e-07
2.68016e-07
2.77393e-07
2.86729e-07
2.95975e-07
3.05136e-07
3.14239e-07
3.23178e-07
3.32033e-07
3.40777e-07
3.4933e-07
3.57782e-07
3.66049e-07
3.74121e-07
3.82068e-07
3.89736e-07
3.97221e-07
4.04531e-07
4.11497e-07
4.18346e-07
4.24785e-07
4.31056e-07
4.36973e-07
4.42619e-07
4.47958e-07
4.52915e-07
4.57616e-07
4.61838e-07
4.65835e-07
4.69279e-07
4.72497e-07
4.75126e-07
4.7749e-07
4.79277e-07
4.8071e-07
4.81618e-07
4.82043e-07
4.82054e-07
4.81393e-07
4.80477e-07
4.78656e-07
4.76787e-07
4.73733e-07
4.7068e-07
4.66532e-07
4.62175e-07
4.56955e-07
4.51228e-07
4.4491e-07
4.37742e-07
4.30316e-07
4.21633e-07
4.12949e-07
4.02818e-07
3.92542e-07
3.812e-07
3.69258e-07
3.56651e-07
3.42961e-07
3.28995e-07
3.13462e-07
2.97928e-07
2.80488e-07
2.62988e-07
2.53432e-07
2.4362e-07
2.33809e-07
2.23998e-07
2.13213e-07
2.02244e-07
1.91274e-07
1.79949e-07
1.67708e-07
1.55467e-07
1.43061e-07
1.2944e-07
1.15819e-07
1.01567e-07
8.65116e-08
7.10687e-08
5.46296e-08
3.73999e-08
2.8545e-08
1.92711e-08
9.78824e-09
0
)


113
(
0
1.01207e-08
1.98211e-08
2.91237e-08
3.80995e-08
4.67831e-08
5.5177e-08
6.32744e-08
7.11691e-08
7.88896e-08
8.63305e-08
9.36135e-08
1.00772e-07
1.07666e-07
1.14458e-07
1.21103e-07
1.27558e-07
1.33927e-07
1.40108e-07
1.46173e-07
1.52135e-07
1.57905e-07
1.63599e-07
1.69138e-07
1.74545e-07
1.79874e-07
1.85e-07
1.90041e-07
1.9496e-07
1.99712e-07
2.04377e-07
2.08876e-07
2.13242e-07
2.1752e-07
2.21582e-07
2.25547e-07
2.29384e-07
2.33026e-07
2.36569e-07
2.39939e-07
2.43142e-07
2.4624e-07
2.49117e-07
2.51857e-07
2.54467e-07
2.56837e-07
2.59129e-07
2.6115e-07
2.63067e-07
2.64764e-07
2.66301e-07
2.67656e-07
2.68796e-07
2.69792e-07
2.7053e-07
2.71146e-07
2.71475e-07
2.71688e-07
2.71607e-07
2.71393e-07
2.70901e-07
2.70238e-07
2.69329e-07
2.68194e-07
2.6687e-07
2.65238e-07
2.63492e-07
2.61341e-07
2.59169e-07
2.56474e-07
2.53779e-07
2.50604e-07
2.47338e-07
2.43695e-07
2.39829e-07
2.35704e-07
2.31204e-07
2.26589e-07
2.21412e-07
2.16235e-07
2.10396e-07
2.04492e-07
1.98086e-07
1.91398e-07
1.84389e-07
1.76855e-07
1.69183e-07
1.6073e-07
1.52278e-07
1.4286e-07
1.33413e-07
1.28283e-07
1.23026e-07
1.17768e-07
1.1251e-07
1.06779e-07
1.00958e-07
9.51374e-08
8.91542e-08
8.27533e-08
7.63525e-08
6.98826e-08
6.29056e-08
5.59286e-08
4.87136e-08
4.11958e-08
3.35462e-08
2.55578e-08
1.73237e-08
1.31329e-08
8.82094e-09
4.45145e-09
0
)


113
(
0
1.24214e-09
2.45534e-09
3.63815e-09
4.79337e-09
5.92185e-09
7.02155e-09
8.08867e-09
9.13159e-09
1.01531e-08
1.11373e-08
1.20984e-08
1.30415e-08
1.3943e-08
1.48274e-08
1.56872e-08
1.65136e-08
1.73246e-08
1.8101e-08
1.88557e-08
1.9591e-08
2.02897e-08
2.09739e-08
2.16283e-08
2.22575e-08
2.28716e-08
2.34474e-08
2.40073e-08
2.45444e-08
2.50511e-08
2.55421e-08
2.60033e-08
2.64416e-08
2.68644e-08
2.72508e-08
2.76213e-08
2.79707e-08
2.82889e-08
2.85918e-08
2.88679e-08
2.9119e-08
2.93543e-08
2.95575e-08
2.97414e-08
2.99068e-08
3.00393e-08
3.01612e-08
3.02471e-08
3.03196e-08
3.03636e-08
3.03875e-08
3.03886e-08
3.03636e-08
3.0321e-08
3.02477e-08
3.01601e-08
3.00395e-08
2.99054e-08
2.97384e-08
2.95564e-08
2.93441e-08
2.91131e-08
2.88559e-08
2.85745e-08
2.82736e-08
2.79407e-08
2.75963e-08
2.72109e-08
2.68234e-08
2.63844e-08
2.59454e-08
2.54605e-08
2.49668e-08
2.4438e-08
2.38886e-08
2.33158e-08
2.27094e-08
2.20931e-08
2.14283e-08
2.07635e-08
2.00442e-08
1.93195e-08
1.85558e-08
1.777e-08
1.69608e-08
1.61133e-08
1.52565e-08
1.4347e-08
1.34375e-08
1.24686e-08
1.14978e-08
1.09898e-08
1.04747e-08
9.95955e-09
9.44443e-09
8.90575e-09
8.36258e-09
7.81941e-09
7.26904e-09
6.70016e-09
6.13127e-09
5.55966e-09
4.96801e-09
4.37636e-09
3.77627e-09
3.16545e-09
2.55037e-09
1.92436e-09
1.29102e-09
9.72162e-10
6.49881e-10
3.26035e-10
0
)

)


10
(

113
(
0
5.64267e-30
1.34777e-29
2.29513e-29
3.30733e-29
4.26262e-29
4.98701e-29
5.26851e-29
4.92495e-29
3.95236e-29
2.64742e-29
1.44289e-29
6.14092e-30
1.93771e-30
4.04946e-31
1.49284e-31
5.07692e-31
1.51461e-30
5.12224e-30
2.11847e-29
1.06547e-28
5.87903e-28
2.65586e-27
2.51089e-26
2.60935e-25
2.86863e-24
3.24201e-23
3.6852e-22
4.13409e-21
4.48964e-20
4.63122e-19
4.47436e-18
4.03921e-17
3.39462e-16
2.71714e-15
2.59107e-14
2.62541e-13
2.54387e-12
2.14543e-11
1.40113e-10
6.53152e-10
2.15245e-09
4.91727e-09
8.41357e-09
1.18715e-08
1.51367e-08
1.88579e-08
2.41727e-08
3.28178e-08
4.68422e-08
6.8448e-08
1.00696e-07
1.47081e-07
2.1133e-07
2.96976e-07
4.1711e-07
5.70747e-07
7.54701e-07
9.66137e-07
1.20619e-06
1.45068e-06
1.68596e-06
1.8999e-06
2.0565e-06
2.17529e-06
2.24559e-06
2.25973e-06
2.25222e-06
2.21292e-06
2.16023e-06
2.09978e-06
2.03146e-06
1.96218e-06
1.89094e-06
1.81899e-06
1.74636e-06
1.67266e-06
1.59854e-06
1.52232e-06
1.44568e-06
1.36649e-06
1.28667e-06
1.20472e-06
1.12204e-06
1.03819e-06
9.54422e-07
8.70708e-07
7.8859e-07
7.07004e-07
6.28695e-07
5.51576e-07
5.14411e-07
4.77245e-07
4.40864e-07
4.05904e-07
3.70943e-07
3.3677e-07
3.04226e-07
2.71681e-07
2.40562e-07
2.10658e-07
1.80863e-07
1.53832e-07
1.26801e-07
1.02346e-07
7.83627e-08
5.74559e-08
3.81426e-08
2.14068e-08
1.40329e-08
7.94566e-09
3.00495e-09
0
)


113
(
0
2.44803e-27
6.83961e-26
2.07422e-24
2.35142e-23
1.92649e-22
1.51898e-21
1.12594e-20
6.7855e-20
3.68125e-19
1.92987e-18
8.85872e-18
3.58408e-17
1.28125e-16
4.03698e-16
1.23713e-15
4.14027e-15
1.25372e-14
3.47545e-14
8.95975e-14
2.16704e-13
4.93857e-13
1.06747e-12
2.41285e-12
5.1746e-12
1.05451e-11
2.04689e-11
3.8065e-11
6.83385e-11
1.1935e-10
2.03146e-10
3.35879e-10
5.39821e-10
8.48879e-10
1.31225e-09
1.99958e-09
2.98456e-09
4.38193e-09
6.3804e-09
9.14338e-09
1.29653e-08
1.82773e-08
2.55174e-08
3.5297e-08
4.83181e-08
6.54257e-08
8.75855e-08
1.15875e-07
1.51966e-07
1.97252e-07
2.52409e-07
3.18354e-07
3.95497e-07
4.83917e-07
5.83366e-07
6.95808e-07
8.17175e-07
9.44789e-07
1.07684e-06
1.21091e-06
1.34169e-06
1.46747e-06
1.58549e-06
1.68693e-06
1.77666e-06
1.85113e-06
1.90181e-06
1.94053e-06
1.95778e-06
1.95811e-06
1.94862e-06
1.91751e-06
1.88124e-06
1.8321e-06
1.77685e-06
1.71558e-06
1.64862e-06
1.57946e-06
1.50572e-06
1.43128e-06
1.35388e-06
1.27602e-06
1.19663e-06
1.11686e-06
1.03648e-06
9.56118e-07
8.75773e-07
7.96299e-07
7.17114e-07
6.40145e-07
5.64132e-07
5.27248e-07
4.90365e-07
4.54185e-07
4.19279e-07
3.84372e-07
3.50207e-07
3.17573e-07
2.8494e-07
2.5366e-07
2.23533e-07
1.93508e-07
1.66065e-07
1.38623e-07
1.13556e-07
8.89244e-08
6.70813e-08
4.65386e-08
2.81262e-08
1.97523e-08
1.23652e-08
5.78773e-09
0
)


113
(
0
2.60225e-14
9.41652e-14
2.5748e-13
5.79935e-13
1.19008e-12
2.30282e-12
4.20182e-12
7.44463e-12
1.27823e-11
2.12959e-11
3.43526e-11
5.40097e-11
8.31556e-11
1.25416e-10
1.87085e-10
2.75721e-10
4.0379e-10
5.79719e-10
8.18049e-10
1.13852e-09
1.56379e-09
2.11882e-09
2.88627e-09
3.88225e-09
5.15667e-09
6.80014e-09
8.84266e-09
1.14096e-08
1.46454e-08
1.85787e-08
2.34147e-08
2.93382e-08
3.63943e-08
4.49324e-08
5.50143e-08
6.70131e-08
8.10873e-08
9.72463e-08
1.16167e-07
1.37512e-07
1.62058e-07
1.8974e-07
2.2067e-07
2.5494e-07
2.93052e-07
3.34468e-07
3.7939e-07
4.28266e-07
4.80693e-07
5.36358e-07
5.94888e-07
6.55923e-07
7.1917e-07
7.84322e-07
8.50881e-07
9.1792e-07
9.84855e-07
1.05127e-06
1.11607e-06
1.17843e-06
1.23837e-06
1.29509e-06
1.34612e-06
1.39327e-06
1.4354e-06
1.46945e-06
1.49918e-06
1.52087e-06
1.53517e-06
1.54518e-06
1.54337e-06
1.538e-06
1.5234e-06
1.50295e-06
1.47675e-06
1.44241e-06
1.40493e-06
1.35844e-06
1.31043e-06
1.25481e-06
1.19772e-06
1.13579e-06
1.07202e-06
1.00533e-06
9.37035e-07
8.67447e-07
7.96774e-07
7.2574e-07
6.54876e-07
5.84407e-07
5.49645e-07
5.14884e-07
4.80496e-07
4.46787e-07
4.13077e-07
3.79784e-07
3.47349e-07
3.14914e-07
2.83322e-07
2.52447e-07
2.21659e-07
1.93061e-07
1.64464e-07
1.37567e-07
1.10982e-07
8.63447e-08
6.26957e-08
4.06235e-08
3.01778e-08
2.03463e-08
1.06322e-08
0
)


113
(
0
5.46098e-11
1.2985e-10
2.41075e-10
3.94125e-10
6.00325e-10
8.73577e-10
1.22978e-09
1.68676e-09
2.26415e-09
2.98347e-09
3.86828e-09
4.94873e-09
6.25609e-09
7.81671e-09
9.69126e-09
1.19091e-08
1.45266e-08
1.75711e-08
2.10684e-08
2.51026e-08
2.97688e-08
3.48932e-08
4.10308e-08
4.78684e-08
5.55387e-08
6.41278e-08
7.36971e-08
8.42926e-08
9.59656e-08
1.08839e-07
1.23073e-07
1.38485e-07
1.5498e-07
1.73044e-07
1.93043e-07
2.13855e-07
2.36227e-07
2.60166e-07
2.8575e-07
3.12561e-07
3.41083e-07
3.70786e-07
4.02085e-07
4.34471e-07
4.67804e-07
5.02483e-07
5.38426e-07
5.74801e-07
6.12164e-07
6.50031e-07
6.88178e-07
7.26489e-07
7.64822e-07
8.02981e-07
8.40569e-07
8.77543e-07
9.13663e-07
9.48796e-07
9.82382e-07
1.01423e-06
1.04455e-06
1.07297e-06
1.09827e-06
1.12159e-06
1.14238e-06
1.15933e-06
1.17421e-06
1.18527e-06
1.19276e-06
1.19818e-06
1.19791e-06
1.19575e-06
1.18868e-06
1.17818e-06
1.16431e-06
1.14551e-06
1.12481e-06
1.09814e-06
1.07036e-06
1.0364e-06
1.0012e-06
9.61924e-07
9.20366e-07
8.75186e-07
8.27169e-07
7.76869e-07
7.23514e-07
6.69142e-07
6.13266e-07
5.56891e-07
5.2812e-07
4.99348e-07
4.70445e-07
4.41305e-07
4.12164e-07
3.83038e-07
3.53941e-07
3.24844e-07
2.95964e-07
2.67271e-07
2.38605e-07
2.10638e-07
1.82672e-07
1.55566e-07
1.2862e-07
1.02807e-07
7.74743e-08
5.2701e-08
4.0399e-08
2.78277e-08
1.46403e-08
0
)


113
(
0
1.1839e-09
2.43304e-09
3.88751e-09
5.5793e-09
7.54744e-09
9.82559e-09
1.24412e-08
1.54179e-08
1.8777e-08
2.25391e-08
2.67248e-08
3.13543e-08
3.6449e-08
4.20296e-08
4.81568e-08
5.48908e-08
6.2188e-08
7.00681e-08
7.8551e-08
8.76566e-08
9.74039e-08
1.07813e-07
1.19005e-07
1.31029e-07
1.43812e-07
1.5741e-07
1.71749e-07
1.86687e-07
2.02334e-07
2.18716e-07
2.35211e-07
2.53228e-07
2.71265e-07
2.90176e-07
3.09815e-07
3.29917e-07
3.50333e-07
3.72214e-07
3.93405e-07
4.15521e-07
4.38334e-07
4.61097e-07
4.84496e-07
5.07889e-07
5.31494e-07
5.55225e-07
5.79004e-07
6.02516e-07
6.25889e-07
6.49217e-07
6.72152e-07
6.9472e-07
7.16909e-07
7.38544e-07
7.59338e-07
7.79433e-07
7.98761e-07
8.1726e-07
8.34446e-07
8.50427e-07
8.65328e-07
8.78874e-07
8.90631e-07
9.01377e-07
9.10881e-07
9.17859e-07
9.23648e-07
9.27393e-07
9.28932e-07
9.29192e-07
9.25817e-07
9.21306e-07
9.13842e-07
9.04119e-07
8.9217e-07
8.77812e-07
8.6252e-07
8.4403e-07
8.24909e-07
8.02016e-07
7.78198e-07
7.51294e-07
7.22903e-07
6.92146e-07
6.59389e-07
6.25022e-07
5.88193e-07
5.50543e-07
5.10042e-07
4.6881e-07
4.47347e-07
4.25884e-07
4.04092e-07
3.81705e-07
3.59318e-07
3.36731e-07
3.13727e-07
2.90724e-07
2.67555e-07
2.44247e-07
2.20936e-07
1.97566e-07
1.74197e-07
1.50837e-07
1.27477e-07
1.03944e-07
8.00989e-08
5.5551e-08
4.28915e-08
2.95033e-08
1.53609e-08
0
)


113
(
0
4.7738e-09
9.34755e-09
1.40318e-08
1.89486e-08
2.41765e-08
2.97681e-08
3.57535e-08
4.2147e-08
4.89533e-08
5.61722e-08
6.38014e-08
7.18373e-08
8.02773e-08
8.91176e-08
9.83838e-08
1.08094e-07
1.18195e-07
1.28679e-07
1.39544e-07
1.50783e-07
1.6239e-07
1.7436e-07
1.86736e-07
1.99449e-07
2.12487e-07
2.2584e-07
2.39494e-07
2.53436e-07
2.67649e-07
2.82116e-07
2.9682e-07
3.1174e-07
3.26918e-07
3.43452e-07
3.58928e-07
3.74525e-07
3.90217e-07
4.05977e-07
4.21778e-07
4.37594e-07
4.53396e-07
4.69152e-07
4.85463e-07
5.05614e-07
5.23038e-07
5.39265e-07
5.55111e-07
5.70491e-07
5.85295e-07
5.9908e-07
6.12192e-07
6.24552e-07
6.36036e-07
6.46655e-07
6.56035e-07
6.63707e-07
6.67495e-07
6.68463e-07
6.76253e-07
6.83175e-07
6.89383e-07
6.94744e-07
6.98882e-07
7.02272e-07
7.04723e-07
7.05935e-07
7.06365e-07
7.05225e-07
7.02896e-07
6.99878e-07
6.9492e-07
6.89347e-07
6.82173e-07
6.73858e-07
6.64422e-07
6.53279e-07
6.41475e-07
6.27445e-07
6.13002e-07
5.96245e-07
5.78906e-07
5.59627e-07
5.39384e-07
5.17609e-07
4.94494e-07
4.70301e-07
4.44397e-07
4.17923e-07
3.89386e-07
3.60292e-07
3.451e-07
3.29908e-07
3.1444e-07
2.98473e-07
2.82505e-07
2.66326e-07
2.49709e-07
2.33091e-07
2.16161e-07
1.98965e-07
1.81746e-07
1.63947e-07
1.46147e-07
1.27714e-07
1.09163e-07
8.96412e-08
6.9486e-08
4.82316e-08
3.71386e-08
2.53842e-08
1.30762e-08
0
)


113
(
0
8.94096e-09
1.73027e-08
2.53831e-08
3.33765e-08
4.13855e-08
4.94833e-08
5.77202e-08
6.61268e-08
7.47199e-08
8.35069e-08
9.24897e-08
1.01666e-07
1.11033e-07
1.20584e-07
1.30325e-07
1.40255e-07
1.50343e-07
1.6058e-07
1.70957e-07
1.81464e-07
1.92092e-07
2.02831e-07
2.12641e-07
2.23239e-07
2.34e-07
2.44794e-07
2.55606e-07
2.66424e-07
2.77232e-07
2.88016e-07
2.98761e-07
3.0945e-07
3.20069e-07
3.306e-07
3.41025e-07
3.5133e-07
3.61498e-07
3.71513e-07
3.81359e-07
3.91019e-07
4.00467e-07
4.09691e-07
4.18674e-07
4.27401e-07
4.35854e-07
4.44016e-07
4.51873e-07
4.59381e-07
4.66526e-07
4.73306e-07
4.79702e-07
4.85704e-07
4.91304e-07
4.96494e-07
5.01137e-07
5.05298e-07
5.09005e-07
5.12266e-07
5.14899e-07
5.16952e-07
5.18534e-07
5.19565e-07
5.19814e-07
5.19592e-07
5.18782e-07
5.17116e-07
5.15009e-07
5.12099e-07
5.08462e-07
5.04403e-07
4.9917e-07
4.9357e-07
4.87013e-07
4.79781e-07
4.71884e-07
4.62985e-07
4.53698e-07
4.44288e-07
4.34634e-07
4.22165e-07
4.09372e-07
3.955e-07
3.8109e-07
3.65824e-07
3.49801e-07
3.33168e-07
3.15544e-07
2.97589e-07
2.78375e-07
2.58786e-07
2.48558e-07
2.3833e-07
2.27884e-07
2.17045e-07
2.06205e-07
1.9516e-07
1.83688e-07
1.72216e-07
1.6037e-07
1.48207e-07
1.36013e-07
1.23065e-07
1.10117e-07
9.64025e-08
8.25474e-08
6.77026e-08
5.23217e-08
3.60764e-08
2.76225e-08
1.8755e-08
9.57662e-09
0
)


113
(
0
1.05702e-08
2.05032e-08
2.99399e-08
3.90353e-08
4.78582e-08
5.6465e-08
6.49036e-08
7.32121e-08
8.14194e-08
8.95463e-08
9.76077e-08
1.05614e-07
1.13573e-07
1.21488e-07
1.2936e-07
1.37185e-07
1.44969e-07
1.52709e-07
1.60402e-07
1.68042e-07
1.75627e-07
1.83151e-07
1.90595e-07
1.97965e-07
2.05254e-07
2.12455e-07
2.19561e-07
2.26565e-07
2.33459e-07
2.40235e-07
2.46887e-07
2.53406e-07
2.59785e-07
2.66014e-07
2.72084e-07
2.7799e-07
2.83725e-07
2.89282e-07
2.94654e-07
2.99834e-07
3.04807e-07
3.0957e-07
3.14116e-07
3.18442e-07
3.22538e-07
3.264e-07
3.30021e-07
3.33377e-07
3.36463e-07
3.39286e-07
3.41838e-07
3.44117e-07
3.46122e-07
3.47855e-07
3.49229e-07
3.50296e-07
3.51076e-07
3.51579e-07
3.51696e-07
3.51465e-07
3.50955e-07
3.50119e-07
3.4883e-07
3.47273e-07
3.45382e-07
3.43011e-07
3.40397e-07
3.37342e-07
3.33893e-07
3.30216e-07
3.25912e-07
3.21415e-07
3.16413e-07
3.1106e-07
3.05361e-07
2.99142e-07
2.92723e-07
2.85631e-07
2.78416e-07
2.70502e-07
2.6241e-07
2.53725e-07
2.44737e-07
2.35267e-07
2.25351e-07
2.15078e-07
2.04184e-07
1.93084e-07
1.81132e-07
1.68904e-07
1.62469e-07
1.56035e-07
1.49427e-07
1.42505e-07
1.35583e-07
1.28488e-07
1.21038e-07
1.13587e-07
1.05826e-07
9.78017e-08
8.97536e-08
8.11128e-08
7.2472e-08
6.32839e-08
5.39956e-08
4.40739e-08
3.38448e-08
2.31398e-08
1.76159e-08
1.18939e-08
6.03225e-09
0
)


113
(
0
7.90558e-09
1.54465e-08
2.26458e-08
2.95669e-08
3.62269e-08
4.26421e-08
4.88312e-08
5.48126e-08
6.06031e-08
6.62174e-08
7.16674e-08
7.69636e-08
8.2114e-08
8.7126e-08
9.19963e-08
9.67237e-08
1.01329e-07
1.05815e-07
1.10185e-07
1.14441e-07
1.18584e-07
1.22616e-07
1.26521e-07
1.30317e-07
1.34005e-07
1.37586e-07
1.41058e-07
1.44422e-07
1.47677e-07
1.50822e-07
1.53857e-07
1.56781e-07
1.59592e-07
1.62291e-07
1.64873e-07
1.67339e-07
1.69691e-07
1.71926e-07
1.74043e-07
1.76042e-07
1.77917e-07
1.79668e-07
1.81297e-07
1.82802e-07
1.84182e-07
1.85436e-07
1.86564e-07
1.87554e-07
1.88408e-07
1.8913e-07
1.89719e-07
1.90175e-07
1.90501e-07
1.90696e-07
1.90724e-07
1.9061e-07
1.90365e-07
1.89994e-07
1.89449e-07
1.88749e-07
1.87925e-07
1.86957e-07
1.85791e-07
1.84508e-07
1.83079e-07
1.81442e-07
1.797e-07
1.77766e-07
1.75661e-07
1.73456e-07
1.70978e-07
1.68414e-07
1.65627e-07
1.62682e-07
1.59581e-07
1.56242e-07
1.52812e-07
1.49065e-07
1.45258e-07
1.41111e-07
1.36875e-07
1.3234e-07
1.27647e-07
1.227e-07
1.17512e-07
1.12128e-07
1.06398e-07
1.00551e-07
9.42182e-08
8.77281e-08
8.42998e-08
8.08715e-08
7.73462e-08
7.36456e-08
6.9945e-08
6.61525e-08
6.21698e-08
5.81871e-08
5.40497e-08
4.97805e-08
4.55006e-08
4.09484e-08
3.63961e-08
3.16143e-08
2.67907e-08
2.17246e-08
1.65503e-08
1.12131e-08
8.48856e-09
5.70282e-09
2.87583e-09
0
)


113
(
0
8.41317e-10
1.66249e-09
2.46273e-09
3.24427e-09
4.00673e-09
4.74982e-09
5.47355e-09
6.17816e-09
6.86399e-09
7.53139e-09
8.18069e-09
8.81218e-09
9.42609e-09
1.00226e-08
1.06007e-08
1.11596e-08
1.17015e-08
1.22265e-08
1.27349e-08
1.32266e-08
1.37017e-08
1.41602e-08
1.45996e-08
1.50228e-08
1.54299e-08
1.58207e-08
1.61954e-08
1.65539e-08
1.68964e-08
1.72228e-08
1.75332e-08
1.78277e-08
1.81062e-08
1.83687e-08
1.86151e-08
1.88456e-08
1.90605e-08
1.92598e-08
1.94436e-08
1.96119e-08
1.97641e-08
1.99007e-08
2.00219e-08
2.01276e-08
2.0218e-08
2.02932e-08
2.03531e-08
2.03967e-08
2.04243e-08
2.04366e-08
2.04335e-08
2.04154e-08
2.03824e-08
2.0335e-08
2.02689e-08
2.01872e-08
2.00913e-08
1.99816e-08
1.98533e-08
1.97085e-08
1.95506e-08
1.93775e-08
1.91838e-08
1.8978e-08
1.8757e-08
1.85149e-08
1.82621e-08
1.79899e-08
1.77007e-08
1.74015e-08
1.70754e-08
1.6741e-08
1.6385e-08
1.6014e-08
1.56281e-08
1.52202e-08
1.48036e-08
1.43584e-08
1.39078e-08
1.34274e-08
1.29394e-08
1.24261e-08
1.19e-08
1.13534e-08
1.07883e-08
1.02083e-08
9.60322e-09
8.98985e-09
8.34387e-09
7.68817e-09
7.34898e-09
7.0098e-09
6.66513e-09
6.31052e-09
5.95592e-09
5.59657e-09
5.2274e-09
4.85822e-09
4.48179e-09
4.09917e-09
3.71609e-09
3.32136e-09
2.92664e-09
2.52294e-09
2.11761e-09
1.70354e-09
1.28582e-09
8.62727e-10
6.49405e-10
4.34218e-10
2.17813e-10
0
)

)


10
(

113
(
0
1.90101e-30
6.86923e-30
1.61921e-29
3.18106e-29
5.78161e-29
1.01236e-28
1.69113e-28
2.69243e-28
4.09843e-28
6.32982e-28
1.03792e-27
1.86e-27
3.60692e-27
7.87615e-27
2.251e-26
7.37e-26
2.54e-25
7.66667e-25
2.83333e-24
1.37431e-23
7.075e-23
3.79333e-22
1.81169e-21
6.41015e-21
4.34175e-20
2.95583e-19
1.95158e-18
1.18475e-17
5.83583e-17
2.88942e-16
2.32309e-15
1.71233e-14
1.1715e-13
7.73636e-13
5.04364e-12
2.89455e-11
1.40727e-10
5.77e-10
2.52518e-09
8.46364e-09
2.2988e-08
4.78273e-08
8.677e-08
1.41364e-07
2.16818e-07
3.24545e-07
4.7e-07
6.52667e-07
8.86e-07
1.15831e-06
1.485e-06
1.83692e-06
2.18571e-06
2.51429e-06
2.80286e-06
3.05e-06
3.25e-06
3.33e-06
3.36687e-06
3.36063e-06
3.29812e-06
3.21812e-06
3.11188e-06
2.99765e-06
2.88e-06
2.76889e-06
2.65778e-06
2.54667e-06
2.43778e-06
2.33222e-06
2.23e-06
2.13e-06
2.03e-06
1.93e-06
1.838e-06
1.748e-06
1.658e-06
1.568e-06
1.478e-06
1.388e-06
1.298e-06
1.208e-06
1.11842e-06
1.02895e-06
9.471e-07
8.661e-07
7.82e-07
6.98222e-07
6.20444e-07
5.43941e-07
5.07176e-07
4.70412e-07
4.34187e-07
4.00125e-07
3.66062e-07
3.32e-07
3.01667e-07
2.71333e-07
2.41e-07
2.0975e-07
1.785e-07
1.50455e-07
1.24545e-07
9.98222e-08
7.68778e-08
5.56143e-08
3.65167e-08
2.16e-08
1.50375e-08
8.235e-09
3.18e-09
0
)


113
(
0
5.87835e-26
2.00179e-24
3.24204e-23
3.33038e-22
2.51704e-21
2.14788e-20
1.53107e-19
9.44095e-19
5.34701e-18
2.75017e-17
1.24165e-16
4.56025e-16
1.46672e-15
5.01381e-15
1.725e-14
5.58516e-14
1.64689e-13
3.95736e-13
9.96237e-13
2.69732e-12
6.40516e-12
1.44297e-11
3.06701e-11
6.14111e-11
1.28814e-10
2.55205e-10
4.83258e-10
8.76054e-10
1.52166e-09
2.62364e-09
4.45254e-09
7.4051e-09
1.18575e-08
1.83147e-08
2.77218e-08
4.09716e-08
5.92725e-08
8.39691e-08
1.17709e-07
1.61396e-07
2.16583e-07
2.85974e-07
3.69793e-07
4.70975e-07
5.88995e-07
7.24151e-07
8.76185e-07
1.04257e-06
1.22183e-06
1.41298e-06
1.60779e-06
1.803e-06
1.99479e-06
2.17747e-06
2.34333e-06
2.49324e-06
2.62555e-06
2.72231e-06
2.79864e-06
2.85454e-06
2.87372e-06
2.87799e-06
2.857e-06
2.81521e-06
2.76452e-06
2.69114e-06
2.61489e-06
2.52715e-06
2.43649e-06
2.34146e-06
2.24494e-06
2.14743e-06
2.05023e-06
1.95318e-06
1.85762e-06
1.76243e-06
1.66908e-06
1.57618e-06
1.48501e-06
1.39427e-06
1.30518e-06
1.21649e-06
1.12951e-06
1.04295e-06
9.58652e-07
8.74603e-07
7.93252e-07
7.12555e-07
6.35057e-07
5.588e-07
5.2212e-07
4.85439e-07
4.49213e-07
4.14803e-07
3.80393e-07
3.45983e-07
3.14048e-07
2.82112e-07
2.50177e-07
2.20806e-07
1.91435e-07
1.63707e-07
1.37075e-07