/*--------------------------------*- C++ -*----------------------------------*\
| =========                 |                                                 |
| \\      /  F ield         | OpenFOAM: The Open Source CFD Toolbox           |
|  \\    /   O peration     | Version:  2.3.0                                 |
|   \\  /    A nd           | Web:      www.OpenFOAM.org                      |
|    \\/     M anipulation  |                                                 |
\*---------------------------------------------------------------------------*/
FoamFile
{
    version     2.0;
    format      ascii;
    class       dictionary;
    location    "constant";
    object      HCCOH;
}
// * * * * * * * * * * * * * * * * * * * * * * * * * * * * * * * * * * * * * //

HCCOH_table
13
(

10
(

113
(
0
1.198e-27
3.06169e-27
5.3147e-27
7.81842e-27
1.05405e-26
1.3477e-26
1.65285e-26
1.97572e-26
2.3155e-26
2.67974e-26
3.08769e-26
3.53e-26
4.1778e-26
5.09224e-26
6.39037e-26
9.52117e-26
1.4853e-25
2.86945e-25
7.80552e-25
1.58914e-24
8.6011e-24
4.71531e-23
1.73511e-22
2.34088e-21
8.1541e-21
1.36359e-19
2.83193e-18
9.22199e-18
3.04085e-16
4.92604e-15
2.55548e-14
6.61401e-13
2.4578e-12
4.18477e-11
5.04016e-10
1.52661e-09
1.51401e-08
6.24665e-08
1.94935e-07
6.33299e-07
1.30099e-06
2.64261e-06
4.24671e-06
6.10299e-06
7.9489e-06
9.75039e-06
1.12085e-05
1.25286e-05
1.35557e-05
1.43513e-05
1.48861e-05
1.51938e-05
1.535e-05
1.52964e-05
1.51442e-05
1.4854e-05
1.45074e-05
1.40667e-05
1.35836e-05
1.30457e-05
1.24743e-05
1.18841e-05
1.12766e-05
1.06361e-05
9.94167e-06
9.24862e-06
8.56055e-06
7.87273e-06
7.19091e-06
6.50909e-06
5.85647e-06
5.20941e-06
4.60676e-06
4.03018e-06
3.49964e-06
3.03536e-06
2.59133e-06
2.24619e-06
1.90106e-06
1.65753e-06
1.42405e-06
1.2406e-06
1.08529e-06
9.49807e-07
8.46668e-07
7.47372e-07
6.69849e-07
5.92326e-07
5.26416e-07
4.60866e-07
4.30122e-07
4.0002e-07
3.69918e-07
3.39816e-07
3.1164e-07
2.83831e-07
2.56022e-07
2.29e-07
2.04e-07
1.79e-07
1.54296e-07
1.31758e-07
1.09221e-07
8.80648e-08
6.86667e-08
5.01025e-08
3.36827e-08
1.92607e-08
1.26663e-08
7.24486e-09
2.76571e-09
0
)


113
(
0
3.6434e-24
1.43532e-22
3.4967e-21
3.50701e-20
3.22489e-19
1.75922e-18
1.45939e-17
1.02537e-16
3.5982e-16
1.96309e-15
9.96937e-15
2.30066e-14
1.16946e-13
4.09861e-13
9.89106e-13
3.81303e-12
9.1206e-12
2.38144e-11
6.68988e-11
1.3516e-10
3.73037e-10
7.76544e-10
1.59782e-09
3.40179e-09
5.8356e-09
1.20458e-08
2.17753e-08
3.65691e-08
6.49069e-08
1.03111e-07
1.65695e-07
2.60156e-07
3.76539e-07
5.68352e-07
8.0592e-07
1.10414e-06
1.51352e-06
1.98251e-06
2.55962e-06
3.23733e-06
3.9752e-06
4.82278e-06
5.71369e-06
6.64621e-06
7.59585e-06
8.54256e-06
9.43919e-06
1.02931e-05
1.1056e-05
1.17269e-05
1.22937e-05
1.27235e-05
1.30619e-05
1.32414e-05
1.33461e-05
1.32987e-05
1.31893e-05
1.29559e-05
1.26669e-05
1.22914e-05
1.1863e-05
1.13845e-05
1.08599e-05
1.03128e-05
9.72888e-06
9.13905e-06
8.5283e-06
7.91765e-06
7.30977e-06
6.70189e-06
6.11928e-06
5.54149e-06
4.99771e-06
4.4739e-06
3.97995e-06
3.52895e-06
3.09215e-06
2.72474e-06
2.35732e-06
2.06679e-06
1.78386e-06
1.5494e-06
1.34218e-06
1.15746e-06
1.00943e-06
8.6759e-07
7.60872e-07
6.54154e-07
5.7219e-07
4.90992e-07
4.55985e-07
4.22744e-07
3.89503e-07
3.56262e-07
3.26718e-07
2.97878e-07
2.69039e-07
2.41087e-07
2.1542e-07
1.89753e-07
1.64426e-07
1.41589e-07
1.18753e-07
9.7143e-08
7.7094e-08
5.78011e-08
4.04527e-08
2.47015e-08
1.73236e-08
1.09381e-08
5.141e-09
0
)


113
(
0
8.66512e-12
3.02149e-11
7.88363e-11
1.7199e-10
3.33733e-10
6.0659e-10
1.12064e-09
1.9202e-09
3.00961e-09
4.8141e-09
7.50312e-09
1.08871e-08
1.66477e-08
2.38783e-08
3.32244e-08
4.72862e-08
6.39018e-08
8.72293e-08
1.16722e-07
1.51681e-07
1.99301e-07
2.53736e-07
3.23565e-07
4.09566e-07
5.05193e-07
6.26713e-07
7.62115e-07
9.17491e-07
1.10228e-06
1.3033e-06
1.53767e-06
1.79671e-06
2.07239e-06
2.39053e-06
2.72585e-06
3.08396e-06
3.47255e-06
3.87413e-06
4.29632e-06
4.73398e-06
5.17982e-06
5.63476e-06
6.08894e-06
6.54238e-06
6.98242e-06
7.41651e-06
7.82309e-06
8.21433e-06
8.57295e-06
8.90098e-06
9.19452e-06
9.44049e-06
9.65475e-06
9.8075e-06
9.93131e-06
9.98679e-06
1.00144e-05
9.97645e-06
9.90911e-06
9.78119e-06
9.61612e-06
9.40863e-06
9.16199e-06
8.88924e-06
8.5739e-06
8.24722e-06
7.88033e-06
7.5121e-06
7.11178e-06
6.71145e-06
6.29975e-06
5.88588e-06
5.47566e-06
5.06759e-06
4.66845e-06
4.28215e-06
3.90143e-06
3.54793e-06
3.19444e-06
2.87973e-06
2.56885e-06
2.2875e-06
2.02277e-06
1.7758e-06
1.55782e-06
1.34625e-06
1.17097e-06
9.95702e-07
8.55949e-07
7.17294e-07
6.59103e-07
6.04429e-07
5.49756e-07
4.95082e-07
4.49908e-07
4.06544e-07
3.6318e-07
3.2191e-07
2.86022e-07
2.50135e-07
2.1501e-07
1.85478e-07
1.55946e-07
1.28316e-07
1.03107e-07
7.88126e-08
5.68717e-08
3.66407e-08
2.7033e-08
1.81997e-08
9.46062e-09
0
)


113
(
0
3.3276e-09
7.65025e-09
1.36803e-08
2.16368e-08
3.17743e-08
4.46324e-08
6.12344e-08
8.11102e-08
1.04053e-07
1.33276e-07
1.67111e-07
2.0457e-07
2.52862e-07
3.04972e-07
3.62573e-07
4.31295e-07
5.05463e-07
5.92643e-07
6.86709e-07
7.86882e-07
9.02763e-07
1.02506e-06
1.16066e-06
1.30708e-06
1.45986e-06
1.62664e-06
1.80279e-06
1.99243e-06
2.19006e-06
2.39277e-06
2.60708e-06
2.8285e-06
3.05473e-06
3.29461e-06
3.53596e-06
3.77926e-06
4.02724e-06
4.27653e-06
4.52711e-06
4.77496e-06
5.02086e-06
5.2615e-06
5.49638e-06
5.72571e-06
5.94257e-06
6.15474e-06
6.34815e-06
6.53342e-06
6.70137e-06
6.85552e-06
6.99408e-06
7.11024e-06
7.21148e-06
7.28632e-06
7.34874e-06
7.38442e-06
7.40916e-06
7.40199e-06
7.38048e-06
7.33055e-06
7.26321e-06
7.17516e-06
7.06799e-06
6.94556e-06
6.79823e-06
6.64291e-06
6.45925e-06
6.27436e-06
6.05973e-06
5.8451e-06
5.61494e-06
5.38183e-06
5.1359e-06
4.88244e-06
4.6268e-06
4.36803e-06
4.10884e-06
3.84757e-06
3.5863e-06
3.33203e-06
3.07845e-06
2.83302e-06
2.59217e-06
2.3574e-06
2.13255e-06
1.91056e-06
1.70482e-06
1.49908e-06
1.3186e-06
1.13891e-06
1.05776e-06
9.79367e-07
9.00969e-07
8.22572e-07
7.53146e-07
6.85429e-07
6.17711e-07
5.52644e-07
4.94392e-07
4.3614e-07
3.78863e-07
3.28731e-07
2.78599e-07
2.31453e-07
1.88105e-07
1.46218e-07
1.08085e-07
7.19346e-08
5.43894e-08
3.70641e-08
1.927e-08
0
)


113
(
0
2.70089e-08
5.44917e-08
8.52392e-08
1.19934e-07
1.58869e-07
2.02646e-07
2.52189e-07
3.06159e-07
3.64093e-07
4.29165e-07
4.9878e-07
5.71963e-07
6.53566e-07
7.3868e-07
8.28848e-07
9.25877e-07
1.02606e-06
1.13324e-06
1.24471e-06
1.35997e-06
1.48209e-06
1.60677e-06
1.7366e-06
1.87336e-06
2.01411e-06
2.16001e-06
2.30529e-06
2.44968e-06
2.59691e-06
2.74604e-06
2.89963e-06
3.05278e-06
3.20556e-06
3.3547e-06
3.50485e-06
3.65637e-06
3.80325e-06
3.94787e-06
4.08859e-06
4.22423e-06
4.357e-06
4.48553e-06
4.60893e-06
4.72742e-06
4.83706e-06
4.94361e-06
5.03883e-06
5.12969e-06
5.21128e-06
5.28576e-06
5.35223e-06
5.40619e-06
5.45182e-06
5.48757e-06
5.51868e-06
5.53257e-06
5.53943e-06
5.53358e-06
5.52203e-06
5.49664e-06
5.46278e-06
5.41574e-06
5.35654e-06
5.2912e-06
5.21586e-06
5.13586e-06
5.03929e-06
4.94186e-06
4.82373e-06
4.70561e-06
4.57318e-06
4.43802e-06
4.29225e-06
4.14025e-06
3.98246e-06
3.81633e-06
3.64954e-06
3.47948e-06
3.30943e-06
3.13399e-06
2.95802e-06
2.78034e-06
2.60171e-06
2.42329e-06
2.24523e-06
2.06769e-06
1.89319e-06
1.71868e-06
1.55015e-06
1.38182e-06
1.30079e-06
1.22075e-06
1.14071e-06
1.06067e-06
9.8474e-07
9.09591e-07
8.34442e-07
7.60789e-07
6.9098e-07
6.21171e-07
5.51996e-07
4.87472e-07
4.22948e-07
3.60329e-07
3.00135e-07
2.40584e-07
1.82684e-07
1.24558e-07
9.53381e-08
6.49942e-08
3.35619e-08
0
)


113
(
0
6.26791e-08
1.21419e-07
1.79976e-07
2.40089e-07
3.02473e-07
3.6777e-07
4.36654e-07
5.08222e-07
5.82161e-07
6.60115e-07
7.40395e-07
8.22502e-07
9.08483e-07
9.95902e-07
1.08539e-06
1.17736e-06
1.2704e-06
1.36564e-06
1.46203e-06
1.55944e-06
1.65834e-06
1.75771e-06
1.85791e-06
1.9585e-06
2.0593e-06
2.16017e-06
2.26083e-06
2.3612e-06
2.46075e-06
2.55976e-06
2.65753e-06
2.75402e-06
2.84947e-06
2.93508e-06
3.02248e-06
3.11225e-06
3.19893e-06
3.28395e-06
3.36596e-06
3.44482e-06
3.52165e-06
3.59404e-06
3.68091e-06
3.78168e-06
3.85798e-06
3.92824e-06
3.98734e-06
4.04179e-06
4.08634e-06
4.12532e-06
4.15802e-06
4.18089e-06
4.19721e-06
4.20215e-06
4.20173e-06
4.15917e-06
4.0994e-06
4.07281e-06
4.06113e-06
4.04218e-06
4.01878e-06
3.9892e-06
3.9539e-06
3.91408e-06
3.86687e-06
3.81945e-06
3.77127e-06
3.72214e-06
3.6505e-06
3.57885e-06
3.49823e-06
3.4159e-06
3.32722e-06
3.23481e-06
3.13858e-06
3.03685e-06
2.93369e-06
2.82352e-06
2.71335e-06
2.59647e-06
2.47893e-06
2.35746e-06
2.2338e-06
2.10836e-06
1.98002e-06
1.85122e-06
1.71982e-06
1.58842e-06
1.45572e-06
1.32298e-06
1.25674e-06
1.19055e-06
1.12436e-06
1.05817e-06
9.92689e-07
9.27347e-07
8.62006e-07
7.96974e-07
7.3274e-07
6.68506e-07
6.04356e-07
5.4082e-07
4.77285e-07
4.13539e-07
3.49525e-07
2.84909e-07
2.18748e-07
1.50212e-07
1.1517e-07
7.82508e-08
4.01243e-08
0
)


113
(
0
8.22761e-08
1.58183e-07
2.30274e-07
3.00488e-07
3.69742e-07
4.38619e-07
5.07653e-07
5.77009e-07
6.46697e-07
7.171e-07
7.87943e-07
8.59134e-07
9.31004e-07
1.00308e-06
1.07544e-06
1.14799e-06
1.2206e-06
1.2932e-06
1.36564e-06
1.43795e-06
1.50977e-06
1.57766e-06
1.63455e-06
1.69829e-06
1.76586e-06
1.83185e-06
1.89708e-06
1.9612e-06
2.02363e-06
2.08514e-06
2.1448e-06
2.20288e-06
2.25989e-06
2.31416e-06
2.36714e-06
2.4184e-06
2.46693e-06
2.51406e-06
2.5587e-06
2.60086e-06
2.64146e-06
2.67871e-06
2.71387e-06
2.74701e-06
2.77643e-06
2.80462e-06
2.82855e-06
2.85085e-06
2.86967e-06
2.88596e-06
2.89939e-06
2.90943e-06
2.91721e-06
2.92096e-06
2.92281e-06
2.92026e-06
2.91591e-06
2.9071e-06
2.8963e-06
2.88138e-06
2.86393e-06
2.84296e-06
2.81873e-06
2.79189e-06
2.76079e-06
2.72817e-06
2.69018e-06
2.65192e-06
2.60707e-06
2.56223e-06
2.51172e-06
2.46012e-06
2.40438e-06
2.3462e-06
2.28541e-06
2.22088e-06
2.15702e-06
2.09646e-06
2.03591e-06
1.95927e-06
1.88104e-06
1.79971e-06
1.71664e-06
1.63194e-06
1.54459e-06
1.45668e-06
1.36565e-06
1.27461e-06
1.18057e-06
1.08643e-06
1.03833e-06
9.89903e-07
9.41476e-07
8.93049e-07
8.43474e-07
7.9368e-07
7.43886e-07
6.93625e-07
6.42161e-07
5.90697e-07
5.38957e-07
4.85198e-07
4.3144e-07
3.76315e-07
3.19451e-07
2.61528e-07
2.00877e-07
1.37614e-07
1.05171e-07
7.11389e-08
3.62359e-08
0
)


113
(
0
7.50671e-08
1.45058e-07
2.10887e-07
2.7372e-07
3.3415e-07
3.92437e-07
4.48788e-07
5.03932e-07
5.5807e-07
6.10718e-07
6.62572e-07
7.13802e-07
7.63729e-07
8.13148e-07
8.61833e-07
9.09533e-07
9.56772e-07
1.00297e-06
1.04847e-06
1.09336e-06
1.13702e-06
1.18017e-06
1.22226e-06
1.26337e-06
1.30391e-06
1.34288e-06
1.38117e-06
1.41846e-06
1.45434e-06
1.48948e-06
1.52316e-06
1.55568e-06
1.58739e-06
1.61715e-06
1.64602e-06
1.6737e-06
1.69957e-06
1.72451e-06
1.74784e-06
1.76961e-06
1.79039e-06
1.80909e-06
1.82653e-06
1.84275e-06
1.85674e-06
1.87001e-06
1.88078e-06
1.89061e-06
1.89843e-06
1.90481e-06
1.90956e-06
1.9124e-06
1.91397e-06
1.91329e-06
1.91155e-06
1.90737e-06
1.9022e-06
1.89458e-06
1.88585e-06
1.87487e-06
1.86251e-06
1.84822e-06
1.83214e-06
1.81464e-06
1.79481e-06
1.77415e-06
1.75054e-06
1.72678e-06
1.69939e-06
1.67201e-06
1.64147e-06
1.61033e-06
1.57685e-06
1.542e-06
1.50566e-06
1.46715e-06
1.42804e-06
1.38592e-06
1.34381e-06
1.29847e-06
1.25281e-06
1.20491e-06
1.15576e-06
1.10529e-06
1.05268e-06
9.99541e-07
9.43442e-07
8.87344e-07
8.27738e-07
7.68022e-07
7.36687e-07
7.04885e-07
6.73083e-07
6.41281e-07
6.07665e-07
5.73704e-07
5.39743e-07
5.05097e-07
4.6869e-07
4.32282e-07
3.95545e-07
3.56384e-07
3.17223e-07
2.76761e-07
2.34642e-07
1.91703e-07
1.46657e-07
9.9907e-08
7.60136e-08
5.12064e-08
2.59399e-08
0
)


113
(
0
4.65133e-08
9.07274e-08
1.3275e-07
1.72957e-07
2.11529e-07
2.4847e-07
2.83724e-07
3.17817e-07
3.50909e-07
3.82382e-07
4.12932e-07
4.42758e-07
4.7103e-07
4.98702e-07
5.25508e-07
5.51201e-07
5.76389e-07
6.00473e-07
6.23882e-07
6.46694e-07
6.68402e-07
6.89679e-07
7.10076e-07
7.29734e-07
7.48954e-07
7.67063e-07
7.84715e-07
8.01708e-07
8.17821e-07
8.33484e-07
8.48283e-07
8.62417e-07
8.76103e-07
8.88723e-07
9.00875e-07
9.12407e-07
9.23014e-07
9.33164e-07
9.42515e-07
9.51111e-07
9.59234e-07
9.66378e-07
9.72934e-07
9.78925e-07
9.83904e-07
9.88552e-07
9.92083e-07
9.95197e-07
9.97421e-07
9.99014e-07
9.99893e-07
9.99945e-07
9.99445e-07
9.97975e-07
9.96049e-07
9.93078e-07
9.89679e-07
9.85232e-07
9.80313e-07
9.74427e-07
9.67948e-07
9.60637e-07
9.52558e-07
9.43857e-07
9.34142e-07
9.24059e-07
9.12675e-07
9.01223e-07
8.88134e-07
8.75044e-07
8.60489e-07
8.45655e-07
8.29694e-07
8.13071e-07
7.9569e-07
7.77219e-07
7.58419e-07
7.38017e-07
7.17615e-07
6.95364e-07
6.7293e-07
6.4912e-07
6.24535e-07
5.99081e-07
5.72206e-07
5.44964e-07
5.15635e-07
4.86306e-07
4.54418e-07
4.22451e-07
4.05396e-07
3.88003e-07
3.7061e-07
3.53216e-07
3.34577e-07
3.157e-07
2.96823e-07
2.77518e-07
2.57112e-07
2.36707e-07
2.16119e-07
1.94193e-07
1.72267e-07
1.49711e-07
1.26355e-07
1.02649e-07
7.80443e-08
5.27879e-08
3.99637e-08
2.68173e-08
1.35178e-08
0
)


113
(
0
4.27641e-09
8.45067e-09
1.25177e-08
1.64876e-08
2.03632e-08
2.41375e-08
2.77971e-08
3.13718e-08
3.48711e-08
3.82394e-08
4.1527e-08
4.47512e-08
4.78296e-08
5.08482e-08
5.37807e-08
5.65965e-08
5.93584e-08
6.19998e-08
6.45652e-08
6.70632e-08
6.94336e-08
7.17536e-08
7.39702e-08
7.60988e-08
7.81753e-08
8.01188e-08
8.20075e-08
8.38171e-08
8.55212e-08
8.71714e-08
8.87185e-08
9.01866e-08
9.16016e-08
9.28908e-08
9.41253e-08
9.52874e-08
9.63422e-08
9.73443e-08
9.82548e-08
9.90793e-08
9.98501e-08
1.00511e-07
1.01106e-07
1.01637e-07
1.02057e-07
1.0244e-07
1.02701e-07
1.02916e-07
1.03034e-07
1.03084e-07
1.03057e-07
1.02941e-07
1.02765e-07
1.02486e-07
1.02158e-07
1.01719e-07
1.01235e-07
1.00639e-07
9.99928e-08
9.92445e-08
9.84334e-08
9.75344e-08
9.65543e-08
9.55085e-08
9.43558e-08
9.31643e-08
9.18359e-08
9.05002e-08
8.89926e-08
8.74851e-08
8.58244e-08
8.41346e-08
8.23279e-08
8.04527e-08
7.85e-08
7.64356e-08
7.43383e-08
7.20802e-08
6.98222e-08
6.73838e-08
6.49275e-08
6.23422e-08
5.96843e-08
5.6949e-08
5.40874e-08
5.11952e-08
4.81296e-08
4.5064e-08
4.18029e-08
3.85358e-08
3.6828e-08
3.50969e-08
3.33657e-08
3.16346e-08
2.98262e-08
2.80031e-08
2.61801e-08
2.43334e-08
2.24261e-08
2.05189e-08
1.86026e-08
1.66209e-08
1.46392e-08
1.26299e-08
1.05855e-08
8.52718e-09
6.4332e-09
4.31527e-09
3.24916e-09
2.17189e-09
1.08952e-09
0
)

)


10
(

113
(
0
9.22428e-28
2.41078e-27
4.22582e-27
6.25892e-27
8.47279e-27
1.0844e-26
1.3365e-26
1.60615e-26
1.90321e-26
2.25273e-26
2.70983e-26
3.38954e-26
4.52652e-26
6.58681e-26
1.08202e-25
2.19606e-25
5.37606e-25
1.59578e-24
5.69527e-24
2.37166e-23
1.07178e-22
4.30932e-22
3.26e-21
2.84297e-20
2.76395e-19
2.88864e-18
3.13554e-17
3.42366e-16
3.64337e-15
3.66514e-14
3.39858e-13
2.86673e-12
2.17559e-11
1.51823e-10
1.09994e-09
7.01702e-09
3.64988e-08
1.52039e-07
5.01746e-07
1.31682e-06
2.81386e-06
4.96235e-06
7.50859e-06
1.01315e-05
1.25697e-05
1.46568e-05
1.63206e-05
1.75154e-05
1.82772e-05
1.86651e-05
1.87213e-05
1.84933e-05
1.8024e-05
1.73519e-05
1.64778e-05
1.54846e-05
1.4414e-05
1.32909e-05
1.21414e-05
1.10145e-05
9.92227e-06
8.88415e-06
7.94965e-06
7.08233e-06
6.30078e-06
5.64029e-06
5.03723e-06
4.53348e-06
4.10249e-06
3.7137e-06
3.41196e-06
3.13011e-06
2.89735e-06
2.68726e-06
2.49949e-06
2.3331e-06
2.17499e-06
2.03429e-06
1.89629e-06
1.7699e-06
1.64548e-06
1.52765e-06
1.41225e-06
1.30074e-06
1.1921e-06
1.08578e-06
9.82904e-07
8.81176e-07
7.84062e-07
6.88428e-07
6.42336e-07
5.96243e-07
5.51102e-07
5.07679e-07
4.64257e-07
4.21785e-07
3.81279e-07
3.40773e-07
3.01993e-07
2.64682e-07
2.27505e-07
1.93695e-07
1.59884e-07
1.29217e-07
9.91275e-08
7.28111e-08
4.84595e-08
2.7293e-08
1.7942e-08
1.01908e-08
3.8752e-09
0
)


113
(
0
9.21247e-24
2.84422e-22
7.00835e-21
7.48627e-20
5.59001e-19
4.33896e-18
2.9468e-17
1.67502e-16
8.62979e-16
4.23526e-15
1.78412e-14
6.89209e-14
2.39064e-13
7.30518e-13
2.15215e-12
6.7572e-12
1.943e-11
5.16953e-11
1.28246e-10
2.98482e-10
6.55115e-10
1.3663e-09
2.9535e-09
6.04607e-09
1.17633e-08
2.18768e-08
3.91111e-08
6.75948e-08
1.13089e-07
1.83108e-07
2.87295e-07
4.37545e-07
6.47601e-07
9.32676e-07
1.31084e-06
1.79437e-06
2.39299e-06
3.11233e-06
3.95116e-06
4.90328e-06
5.95402e-06
7.07909e-06
8.24532e-06
9.4172e-06
1.05593e-05
1.16337e-05
1.26068e-05
1.34401e-05
1.41079e-05
1.46019e-05
1.49127e-05
1.50438e-05
1.50038e-05
1.48046e-05
1.44252e-05
1.39217e-05
1.33237e-05
1.26486e-05
1.1899e-05
1.11152e-05
1.03174e-05
9.51461e-06
8.73491e-06
7.97888e-06
7.2561e-06
6.59518e-06
5.96781e-06
5.40323e-06
4.89416e-06
4.41727e-06
4.02086e-06
3.64626e-06
3.32717e-06
3.03919e-06
2.78185e-06
2.5592e-06
2.34999e-06
2.17334e-06
2.00188e-06
1.85387e-06
1.70985e-06
1.57908e-06
1.45293e-06
1.33411e-06
1.22001e-06
1.10971e-06
1.00434e-06
9.00625e-07
8.02547e-07
7.061e-07
6.59772e-07
6.13445e-07
5.68096e-07
5.24518e-07
4.80939e-07
4.38307e-07
3.97631e-07
3.56954e-07
3.17949e-07
2.80367e-07
2.4291e-07
2.08615e-07
1.7432e-07
1.42933e-07
1.12078e-07
8.46476e-08
5.88166e-08
3.56129e-08
2.50412e-08
1.56941e-08
7.35642e-09
0
)


113
(
0
1.41203e-11
4.91661e-11
1.28653e-10
2.7822e-10
5.46098e-10
1.00422e-09
1.75753e-09
2.97411e-09
4.85744e-09
7.68743e-09
1.17729e-08
1.75323e-08
2.55625e-08
3.65737e-08
5.14049e-08
7.18251e-08
9.84294e-08
1.32499e-07
1.75545e-07
2.29151e-07
2.94975e-07
3.75233e-07
4.74857e-07
5.94371e-07
7.35258e-07
8.9925e-07
1.08862e-06
1.30492e-06
1.54952e-06
1.82436e-06
2.1297e-06
2.46682e-06
2.83433e-06
3.23163e-06
3.65481e-06
4.09983e-06
4.56725e-06
5.05202e-06
5.54604e-06
6.04767e-06
6.54965e-06
7.04553e-06
7.52987e-06
7.99594e-06
8.43624e-06
8.84664e-06
9.22012e-06
9.55018e-06
9.83305e-06
1.00671e-05
1.02474e-05
1.03736e-05
1.04459e-05
1.0464e-05
1.04155e-05
1.03126e-05
1.01629e-05
9.97054e-06
9.72503e-06
9.43916e-06
9.12458e-06
8.7796e-06
8.40347e-06
8.0138e-06
7.60917e-06
7.19382e-06
6.77621e-06
6.35792e-06
5.94581e-06
5.53727e-06
5.14724e-06
4.76467e-06
4.40209e-06
4.05528e-06
3.72399e-06
3.4181e-06
3.12203e-06
2.85789e-06
2.59953e-06
2.37257e-06
2.15253e-06
1.95547e-06
1.76845e-06
1.5974e-06
1.43847e-06
1.28929e-06
1.15382e-06
1.02291e-06
9.06031e-07
7.92793e-07
7.40395e-07
6.87997e-07
6.37225e-07
5.89397e-07
5.41568e-07
4.94983e-07
4.50967e-07
4.06951e-07
3.64725e-07
3.24024e-07
2.83462e-07
2.46413e-07
2.09365e-07
1.74843e-07
1.40782e-07
1.09418e-07
7.93647e-08
5.13841e-08
3.81588e-08
2.57223e-08
1.34394e-08
0
)


113
(
0
4.6435e-09
1.06391e-08
1.89881e-08
2.99108e-08
4.39063e-08
6.15398e-08
8.33932e-08
1.10052e-07
1.42092e-07
1.80081e-07
2.2458e-07
2.76118e-07
3.35374e-07
4.03099e-07
4.79958e-07
5.67896e-07
6.65482e-07
7.72311e-07
8.90453e-07
1.02031e-06
1.15974e-06
1.31281e-06
1.47691e-06
1.65329e-06
1.84e-06
2.03765e-06
2.24606e-06
2.46514e-06
2.69362e-06
2.92866e-06
3.17153e-06
3.42162e-06
3.67732e-06
3.93619e-06
4.1982e-06
4.46421e-06
4.72683e-06
4.98549e-06
5.24018e-06
5.49345e-06
5.7352e-06
5.96975e-06
6.19271e-06
6.40439e-06
6.60286e-06
6.78597e-06
6.95157e-06
7.09921e-06
7.22756e-06
7.33796e-06
7.42717e-06
7.49566e-06
7.5438e-06
7.57093e-06
7.57167e-06
7.54936e-06
7.50772e-06
7.4483e-06
7.36506e-06
7.26126e-06
7.14185e-06
7.00497e-06
6.84583e-06
6.67517e-06
6.49081e-06
6.29007e-06
6.08192e-06
5.86135e-06
5.63225e-06
5.39821e-06
5.15572e-06
4.91168e-06
4.66402e-06
4.41579e-06
4.16701e-06
3.92017e-06
3.67409e-06
3.43564e-06
3.19873e-06
2.97113e-06
2.74618e-06
2.52999e-06
2.31908e-06
2.11657e-06
1.92152e-06
1.73248e-06
1.55447e-06
1.38015e-06
1.22315e-06
1.0705e-06
9.99208e-07
9.27914e-07
8.58955e-07
7.9422e-07
7.29486e-07
6.66675e-07
6.07841e-07
5.49007e-07
4.92997e-07
4.39392e-07
3.85963e-07
3.36989e-07
2.88016e-07
2.42561e-07
1.97745e-07
1.56466e-07
1.16559e-07
7.8408e-08
5.97398e-08
4.09497e-08
2.14318e-08
0
)


113
(
0
3.3685e-08
6.76547e-08
1.05535e-07
1.48029e-07
1.95731e-07
2.4901e-07
3.08043e-07
3.72893e-07
4.43565e-07
5.20036e-07
6.02272e-07
6.90222e-07
7.8384e-07
8.83057e-07
9.88188e-07
1.0994e-06
1.21586e-06
1.33737e-06
1.46376e-06
1.5948e-06
1.73025e-06
1.86984e-06
2.01376e-06
2.16188e-06
2.31623e-06
2.47266e-06
2.63018e-06
2.78928e-06
2.94836e-06
3.10668e-06
3.26724e-06
3.4225e-06
3.58021e-06
3.73336e-06
3.88548e-06
4.03545e-06
4.18272e-06
4.32086e-06
4.45821e-06
4.59189e-06
4.71863e-06
4.8374e-06
4.95028e-06
5.05645e-06
5.15509e-06
5.2459e-06
5.32836e-06
5.40173e-06
5.46499e-06
5.5209e-06
5.56727e-06
5.60316e-06
5.62863e-06
5.64418e-06
5.64733e-06
5.64171e-06
5.6272e-06
5.60357e-06
5.56683e-06
5.52044e-06
5.46617e-06
5.40255e-06
5.3255e-06
5.2422e-06
5.15178e-06
5.04786e-06
4.93833e-06
4.82001e-06
4.69462e-06
4.56514e-06
4.42836e-06
4.28635e-06
4.12969e-06
3.96875e-06
3.80359e-06
3.63958e-06
3.47601e-06
3.30849e-06
3.14039e-06
2.96991e-06
2.79926e-06
2.62805e-06
2.45722e-06
2.28702e-06
2.11828e-06
1.95071e-06
1.78619e-06
1.62267e-06
1.46434e-06
1.30786e-06
1.2318e-06
1.15573e-06
1.0809e-06
1.00827e-06
9.35644e-07
8.64223e-07
7.95293e-07
7.26363e-07
6.59495e-07
5.94384e-07
5.29413e-07
4.67995e-07
4.06578e-07
3.47843e-07
2.89592e-07
2.33394e-07
1.77485e-07
1.21469e-07
9.30934e-08
6.36451e-08
3.29182e-08
0
)


113
(
0
7.22222e-08
1.39384e-07
2.06112e-07
2.74338e-07
3.45024e-07
4.187e-07
4.95575e-07
5.75648e-07
6.58798e-07
7.44849e-07
8.33604e-07
9.24862e-07
1.01843e-06
1.11411e-06
1.21184e-06
1.31145e-06
1.41252e-06
1.51486e-06
1.61826e-06
1.72254e-06
1.8275e-06
1.93294e-06
2.03863e-06
2.1443e-06
2.24973e-06
2.35471e-06
2.45903e-06
2.56246e-06
2.66478e-06
2.76576e-06
2.86519e-06
2.96284e-06
3.05721e-06
3.12528e-06
3.21579e-06
3.30368e-06
3.38879e-06
3.47093e-06
3.54992e-06
3.6256e-06
3.69769e-06
3.76609e-06
3.83985e-06
3.96494e-06
4.03617e-06
4.09837e-06
4.15272e-06
4.19725e-06
4.2356e-06
4.2673e-06
4.28924e-06
4.30351e-06
4.31176e-06
4.31338e-06
4.30419e-06
4.27433e-06
4.21383e-06
4.1341e-06
4.11289e-06
4.08592e-06
4.05439e-06
4.01764e-06
3.97392e-06
3.92617e-06
3.87346e-06
3.83119e-06
3.78312e-06
3.71282e-06
3.63766e-06
3.55968e-06
3.47447e-06
3.38715e-06
3.29442e-06
3.19822e-06
3.09861e-06
2.99437e-06
2.88833e-06
2.77698e-06
2.6647e-06
2.54763e-06
2.42954e-06
2.30806e-06
2.18521e-06
2.06018e-06
1.93369e-06
1.80603e-06
1.67714e-06
1.54785e-06
1.41796e-06
1.28817e-06
1.22341e-06
1.15866e-06
1.09412e-06
1.02999e-06
9.65857e-07
9.02018e-07
8.38785e-07
7.75552e-07
7.1281e-07
6.50485e-07
5.88181e-07
5.2641e-07
4.64639e-07
4.02706e-07
3.40735e-07
2.77554e-07
2.13196e-07
1.46629e-07
1.12321e-07
7.64441e-08
3.91959e-08
0
)


113
(
0
9.00636e-08
1.7272e-07
2.51015e-07
3.27092e-07
4.01944e-07
4.76252e-07
5.50472e-07
6.24878e-07
6.99607e-07
7.74712e-07
8.50189e-07
9.25998e-07
1.00208e-06
1.07837e-06
1.15477e-06
1.23116e-06
1.30743e-06
1.38349e-06
1.45923e-06
1.53456e-06
1.60939e-06
1.6836e-06
1.73226e-06
1.79922e-06
1.86818e-06
1.93594e-06
2.00238e-06
2.06741e-06
2.13093e-06
2.19285e-06
2.25306e-06
2.31147e-06
2.36799e-06
2.42254e-06
2.47497e-06
2.52525e-06
2.57334e-06
2.61914e-06
2.66259e-06
2.70362e-06
2.74209e-06
2.77797e-06
2.81123e-06
2.84183e-06
2.86971e-06
2.89484e-06
2.91718e-06
2.93648e-06
2.95274e-06
2.96606e-06
2.9764e-06
2.98379e-06
2.98824e-06
2.98982e-06
2.98766e-06
2.98236e-06
2.97419e-06
2.96325e-06
2.94855e-06
2.93052e-06
2.90985e-06
2.88615e-06
2.85834e-06
2.82814e-06
2.79498e-06
2.75772e-06
2.71841e-06
2.67543e-06
2.62929e-06
2.58133e-06
2.52853e-06
2.47428e-06
2.41631e-06
2.35585e-06
2.29294e-06
2.22657e-06
2.15885e-06
2.10021e-06
2.04087e-06
1.962e-06
1.88226e-06
1.79962e-06
1.71565e-06
1.62957e-06
1.54181e-06
1.45268e-06
1.36157e-06
1.2698e-06
1.17577e-06
1.08112e-06
1.03309e-06
9.85053e-07
9.3667e-07
8.87657e-07
8.38645e-07
7.89278e-07
7.39179e-07
6.8908e-07
6.38244e-07
5.86781e-07
5.35249e-07
4.81984e-07
4.28718e-07
3.73465e-07
3.17843e-07
2.59417e-07
1.99382e-07
1.36714e-07
1.04349e-07
7.06673e-08
3.59822e-08
0
)


113
(
0
7.94359e-08
1.53276e-07
2.22608e-07
2.88718e-07
3.52134e-07
4.13285e-07
4.72545e-07
5.30215e-07
5.86526e-07
6.4165e-07
6.95711e-07
7.48799e-07
8.00974e-07
8.52281e-07
9.02686e-07
9.52153e-07
1.00079e-06
1.04858e-06
1.09552e-06
1.14158e-06
1.18674e-06
1.23096e-06
1.27408e-06
1.3162e-06
1.35729e-06
1.39733e-06
1.43627e-06
1.47407e-06
1.51071e-06
1.54614e-06
1.58034e-06
1.61326e-06
1.64487e-06
1.67514e-06
1.70401e-06
1.73148e-06
1.75753e-06
1.78214e-06
1.80529e-06
1.82694e-06
1.84702e-06
1.86555e-06
1.88251e-06
1.89789e-06
1.91169e-06
1.92388e-06
1.93445e-06
1.94327e-06
1.95036e-06
1.95578e-06
1.95952e-06
1.96159e-06
1.96201e-06
1.96082e-06
1.95754e-06
1.95252e-06
1.94589e-06
1.93773e-06
1.92748e-06
1.91537e-06
1.9018e-06
1.88655e-06
1.86901e-06
1.85013e-06
1.8296e-06
1.80677e-06
1.7828e-06
1.75675e-06
1.72892e-06
1.70004e-06
1.6684e-06
1.63593e-06
1.60129e-06
1.56519e-06
1.52765e-06
1.48802e-06
1.44758e-06
1.40452e-06
1.36099e-06
1.31483e-06
1.26802e-06
1.21906e-06
1.16902e-06
1.11728e-06
1.06401e-06
1.00951e-06
9.5292e-07
8.95636e-07
8.35512e-07
7.74471e-07
7.4288e-07
7.1129e-07
6.79115e-07
6.45881e-07
6.12647e-07
5.78821e-07
5.4377e-07
5.08719e-07
4.72578e-07
4.35509e-07
3.98355e-07
3.59069e-07
3.19783e-07
2.78487e-07
2.36824e-07
1.92797e-07
1.47609e-07
1.00616e-07
7.64656e-08
5.15555e-08
2.61075e-08
0
)


113
(
0
4.83303e-08
9.42041e-08
1.37768e-07
1.79444e-07
2.1934e-07
2.57564e-07
2.94237e-07
3.29481e-07
3.63407e-07
3.96113e-07
4.27682e-07
4.58181e-07
4.87668e-07
5.16193e-07
5.43732e-07
5.70279e-07
5.95979e-07
6.20856e-07
6.4493e-07
6.68219e-07
6.90737e-07
7.12493e-07
7.33386e-07
7.53549e-07
7.72988e-07
7.91707e-07
8.09709e-07
8.26998e-07
8.43574e-07
8.59438e-07
8.74592e-07
8.89035e-07
9.02766e-07
9.15785e-07
9.28073e-07
9.39648e-07
9.50514e-07
9.6067e-07
9.70112e-07
9.78842e-07
9.86833e-07
9.94096e-07
1.00064e-06
1.00646e-06
1.01156e-06
1.01593e-06
1.01959e-06
1.02247e-06
1.02458e-06
1.02597e-06
1.02661e-06
1.02654e-06
1.02574e-06
1.02425e-06
1.02186e-06
1.01872e-06
1.01488e-06
1.01038e-06
1.00498e-06
9.98779e-07
9.91942e-07
9.84372e-07
9.75802e-07
9.66645e-07
9.56759e-07
9.45848e-07
9.34418e-07
9.22054e-07
9.08862e-07
8.95191e-07
8.80212e-07
8.64828e-07
8.48393e-07
8.31219e-07
8.1332e-07
7.94321e-07
7.74898e-07
7.54029e-07
7.32889e-07
7.10213e-07
6.87135e-07
6.62716e-07
6.3759e-07
6.11339e-07
5.84018e-07
5.55836e-07
5.26125e-07
4.95904e-07
4.63547e-07
4.30503e-07
4.13179e-07
3.95854e-07
3.78106e-07
3.5959e-07
3.41073e-07
3.22155e-07
3.02404e-07
2.82653e-07
2.62224e-07
2.41218e-07
2.20165e-07
1.97917e-07
1.75669e-07
1.52413e-07
1.28973e-07
1.04465e-07
7.94816e-08
5.37801e-08
4.06827e-08
2.73151e-08
1.37654e-08
0
)


113
(
0
4.39962e-09
8.69237e-09
1.28741e-08
1.69565e-08
2.0938e-08
2.48167e-08
2.85929e-08
3.22679e-08
3.58435e-08
3.93217e-08
4.27041e-08
4.59924e-08
4.91877e-08
5.22914e-08
5.52977e-08
5.82023e-08
6.10176e-08
6.37443e-08
6.63828e-08
6.89336e-08
7.1397e-08
7.3773e-08
7.60489e-08
7.82394e-08
8.03447e-08
8.2365e-08
8.43006e-08
8.61517e-08
8.79183e-08
8.96009e-08
9.11995e-08
9.27145e-08
9.4146e-08
9.54942e-08
9.67576e-08
9.79384e-08
9.90375e-08
1.00055e-07
1.00992e-07
1.01848e-07
1.0262e-07
1.03311e-07
1.03921e-07
1.04451e-07
1.04902e-07
1.05273e-07
1.05565e-07
1.05772e-07
1.05896e-07
1.05941e-07
1.05906e-07
1.05793e-07
1.05604e-07
1.05339e-07
1.04978e-07
1.04536e-07
1.04021e-07
1.03435e-07
1.02752e-07
1.01984e-07
1.01149e-07
1.00236e-07
9.9216e-08
9.81338e-08
9.6974e-08
9.57053e-08
9.43814e-08
9.29582e-08
9.14472e-08
8.98854e-08
8.81854e-08
8.64428e-08
8.45895e-08
8.26592e-08
8.06532e-08
7.85338e-08
7.63706e-08
7.40607e-08
7.17235e-08
6.92339e-08
6.67056e-08
6.40482e-08
6.13253e-08
5.84981e-08
5.55766e-08
5.25789e-08
4.9454e-08
4.62866e-08
4.29533e-08
3.95706e-08
3.78216e-08
3.60727e-08
3.42958e-08
3.24685e-08
3.06412e-08
2.87897e-08
2.68884e-08
2.49872e-08
2.3049e-08
2.10795e-08
1.91076e-08
1.70766e-08
1.50457e-08
1.29693e-08
1.08846e-08
8.7555e-09
6.60799e-09
4.43327e-09
3.3369e-09
2.23109e-09
1.11911e-09
0
)

)


10
(

113
(
0
1.33194e-24
3.48154e-24
6.08842e-24
9.01129e-24
1.21727e-23
1.566e-23
1.94226e-23
2.36108e-23
2.86904e-23
3.60456e-23
4.80083e-23
6.935e-23
1.09385e-22
1.93231e-22
4.32667e-22
1.142e-21
3.31231e-21
8.9875e-21
3.03625e-20
1.36692e-19
6.815e-19
3.65e-18
1.773e-17
6.343e-17
4.46e-16
3.1375e-15
2.10242e-14
1.26375e-13
6.02917e-13
2.88208e-12
2.04473e-11
1.241e-10
6.47e-10
3.01091e-09
1.29145e-08
4.75e-08
1.50182e-07
4.12e-07
1.05564e-06
2.21636e-06
4.1e-06
6.35e-06
8.909e-06
1.12945e-05
1.33455e-05
1.49818e-05
1.60333e-05
1.65167e-05
1.66e-05
1.62154e-05
1.5575e-05
1.47e-05
1.37e-05
1.27e-05
1.16429e-05
1.05771e-05
9.52e-06
8.64e-06
7.84062e-06
7.12188e-06
6.50437e-06
5.93187e-06
5.43812e-06
5.02647e-06
4.65e-06
4.35556e-06
4.07222e-06
3.83333e-06
3.60778e-06
3.40222e-06
3.21579e-06
3.04211e-06
2.87947e-06
2.72158e-06
2.578e-06
2.438e-06
2.302e-06
2.167e-06
2.036e-06
1.906e-06
1.78e-06
1.655e-06
1.53316e-06
1.41211e-06
1.2965e-06
1.1815e-06
1.069e-06
9.57389e-07
8.51278e-07
7.47e-07
6.97e-07
6.47e-07
5.97687e-07
5.51125e-07
5.04563e-07
4.58e-07
4.16e-07
3.74e-07
3.32e-07
2.895e-07
2.47e-07
2.08727e-07
1.73273e-07
1.39178e-07
1.07122e-07
7.75e-08
5.09667e-08
3.03e-08
2.11125e-08
1.1595e-08
4.5075e-09
0
)


113
(
0
5.48173e-23
1.62056e-21
2.40131e-20
2.25562e-19
1.68075e-18
1.23508e-17
7.98729e-17
4.63716e-16
2.42926e-15
1.13571e-14
4.57467e-14
1.54785e-13
4.6917e-13
1.52137e-12
4.85604e-12
1.43444e-11
3.87982e-11
8.79755e-11
2.07879e-10
5.17567e-10
1.14945e-09
2.40632e-09
4.74818e-09
8.88455e-09
1.7161e-08
3.16193e-08
5.54972e-08
9.31311e-08
1.50078e-07
2.38277e-07
3.6897e-07
5.55668e-07
8.06725e-07
1.13323e-06
1.55441e-06
2.07653e-06
2.70593e-06
3.44238e-06
4.28998e-06
5.22065e-06
6.20812e-06
7.22737e-06
8.24317e-06
9.21696e-06
1.01142e-05
1.09032e-05
1.15544e-05
1.20599e-05
1.24006e-05
1.25238e-05
1.25027e-05
1.23276e-05
1.20282e-05
1.16008e-05
1.10775e-05
1.05016e-05
9.88289e-06
9.23647e-06
8.59556e-06
7.96017e-06
7.36383e-06
6.79046e-06
6.26053e-06
5.78014e-06
5.32098e-06
4.93559e-06
4.56358e-06
4.24507e-06
3.9485e-06
3.68485e-06
3.44721e-06
3.22692e-06
3.02964e-06
2.84221e-06
2.67371e-06
2.50994e-06
2.35933e-06
2.21202e-06
2.07365e-06
1.9375e-06
1.80771e-06
1.6795e-06
1.55619e-06
1.4341e-06
1.31687e-06
1.20018e-06
1.08823e-06
9.77339e-07
8.71297e-07
7.67001e-07
7.16891e-07
6.66782e-07
6.17287e-07
5.70255e-07
5.23223e-07
4.76191e-07
4.32466e-07
3.8874e-07
3.45015e-07
3.0472e-07
2.64425e-07
2.2633e-07
1.89701e-07
1.54661e-07
1.22006e-07
9.17064e-08