/*--------------------------------*- C++ -*----------------------------------*\
| =========                 |                                                 |
| \\      /  F ield         | OpenFOAM: The Open Source CFD Toolbox           |
|  \\    /   O peration     | Version:  2.3.0                                 |
|   \\  /    A nd           | Web:      www.OpenFOAM.org                      |
|    \\/     M anipulation  |                                                 |
\*---------------------------------------------------------------------------*/
FoamFile
{
    version     2.0;
    format      ascii;
    class       dictionary;
    location    "constant";
    object      C2H2;
}
// * * * * * * * * * * * * * * * * * * * * * * * * * * * * * * * * * * * * * //

C2H2_table
13
(

10
(

113
(
0
1.094e-29
2.5094e-29
4.1433e-29
6.01561e-29
8.24619e-29
1.10875e-28
1.51029e-28
2.06145e-28
2.77066e-28
3.92298e-28
5.53923e-28
7.52e-28
1.14697e-27
1.77981e-27
2.75497e-27
5.7181e-27
1.18977e-26
3.13551e-26
1.44061e-25
3.3946e-25
3.61382e-24
3.77002e-23
1.58509e-22
4.19133e-21
1.90168e-20
4.54855e-19
1.57083e-17
5.22847e-17
2.72647e-15
6.55565e-14
3.52206e-13
1.34067e-11
5.7795e-11
1.23754e-09
2.05497e-08
6.38978e-08
8.55628e-07
4.37867e-06
1.49293e-05
6.07427e-05
0.000138031
0.000329957
0.00061212
0.000980982
0.00148185
0.00202067
0.00266313
0.00332486
0.00402757
0.00474182
0.00546909
0.00619125
0.00691
0.00760254
0.00828274
0.00891233
0.00952124
0.0100733
0.0105999
0.0110362
0.0114171
0.0117458
0.0120262
0.0122176
0.0122639
0.0122697
0.0121321
0.0119836
0.0115745
0.0111655
0.0105869
0.00997602
0.00932432
0.00864865
0.0080029
0.00740022
0.00681876
0.00634088
0.00586301
0.00546722
0.00507956
0.00472195
0.00438124
0.00405242
0.003743
0.00343596
0.00314239
0.00284881
0.00256617
0.00228388
0.00214724
0.00201204
0.00187684
0.00174163
0.00161146
0.00148225
0.00135303
0.00122624
0.00110567
0.000985101
0.000865343
0.000751537
0.000637731
0.000527963
0.000423333
0.000321383
0.000226321
0.000138195
9.62886e-05
5.86457e-05
2.52286e-05
0
)


113
(
0
2.80803e-22
1.09335e-20
2.74574e-19
2.86817e-18
2.71634e-17
1.49274e-16
1.2366e-15
9.25248e-15
3.32933e-14
1.86731e-13
9.58879e-13
2.21716e-12
1.16787e-11
4.26094e-11
1.04435e-10
4.11366e-10
1.0092e-09
2.72813e-09
7.8366e-09
1.59509e-08
4.63103e-08
9.93059e-08
2.09692e-07
4.59617e-07
7.99644e-07
1.70862e-06
3.19114e-06
5.49901e-06
1.01573e-05
1.66075e-05
2.75877e-05
4.50501e-05
6.70017e-05
0.000105854
0.000156016
0.000221168
0.000318106
0.000433909
0.000585553
0.000778441
0.000998101
0.0012782
0.00159663
0.00195189
0.00237063
0.00280902
0.0033085
0.00382531
0.00437895
0.00494752
0.00553293
0.00612134
0.00671175
0.00728614
0.00785299
0.00838206
0.00889572
0.00935224
0.0097831
0.0101451
0.0104648
0.010714
0.0108982
0.0110242
0.0110551
0.0110512
0.0109237
0.0107903
0.0105155
0.0102407
0.00986697
0.00947433
0.00903683
0.00857297
0.00809931
0.00761153
0.00712683
0.00665718
0.00618753
0.00575663
0.00532957
0.00493318
0.00455406
0.00419033
0.00385172
0.00351755
0.00320853
0.0028995
0.00261047
0.00232205
0.00218383
0.00204749
0.00191116
0.00177482
0.00164448
0.00151527
0.00138607
0.0012589
0.00113696
0.00101502
0.000894012
0.000779862
0.000665711
0.000555269
0.000449549
0.000346262
0.000249233
0.000157612
0.000113525
7.32461e-05
3.55044e-05
0
)


113
(
0
1.70125e-09
6.01319e-09
1.59203e-08
3.5219e-08
6.93909e-08
1.28683e-07
2.3834e-07
4.14105e-07
6.58299e-07
1.07723e-06
1.70984e-06
2.51034e-06
3.9075e-06
5.70351e-06
8.07345e-06
1.17062e-05
1.605e-05
2.23235e-05
3.04208e-05
4.01353e-05
5.41052e-05
7.02238e-05
9.11122e-05
0.00011769
0.000147682
0.000188155
0.000233844
0.000287038
0.000353869
0.000428052
0.000517072
0.000619401
0.000730735
0.000866387
0.00101369
0.00117644
0.00136237
0.00156062
0.00178111
0.00202089
0.00227285
0.00255051
0.00284176
0.00314608
0.00347042
0.00380061
0.00414731
0.00449802
0.00485725
0.00521754
0.00557904
0.00593505
0.00628741
0.00662551
0.00695689
0.00726321
0.00755929
0.00782263
0.00807126
0.00828186
0.00846917
0.00861939
0.00873539
0.00882194
0.00886045
0.00888128
0.00883945
0.0087945
0.00867474
0.00855498
0.0083762
0.00818618
0.00795768
0.00770659
0.00743659
0.00713939
0.00683692
0.00650879
0.00618066
0.0058358
0.0054893
0.00514154
0.00479308
0.00444739
0.00410625
0.00376703
0.00343871
0.00311039
0.00280073
0.00249165
0.00234403
0.0021986
0.00205317
0.00190774
0.00177016
0.00163406
0.00149797
0.00136371
0.00123417
0.00110463
0.000976257
0.000856474
0.000736691
0.000620234
0.00050801
0.000397832
0.000292916
0.00019288
0.000144325
9.81288e-05
5.16402e-05
0
)


113
(
0
1.11278e-06
2.58838e-06
4.68638e-06
7.50136e-06
1.11444e-05
1.58408e-05
2.2028e-05
2.95531e-05
3.83438e-05
4.97981e-05
6.32797e-05
7.83543e-05
9.8243e-05
0.000120249
0.000145303
0.000175362
0.000207995
0.000247086
0.00029034
0.000337285
0.000393305
0.000453142
0.000520975
0.000595307
0.000673549
0.000764252
0.000860324
0.00096412
0.00107851
0.00119799
0.00132664
0.00146441
0.00160827
0.00176468
0.00192621
0.00209452
0.00227293
0.00245598
0.00264679
0.00284514
0.00304739
0.00325329
0.00346352
0.0036779
0.00389356
0.00410955
0.00432632
0.00454203
0.00475548
0.00496561
0.005172
0.00537082
0.0055646
0.00574692
0.00592385
0.00608576
0.00624154
0.00637943
0.00650929
0.00661942
0.00671747
0.00679733
0.0068604
0.00690869
0.00693286
0.00694836
0.00693314
0.00691622
0.0068583
0.00680039
0.00670918
0.00661163
0.00648963
0.00635327
0.00620202
0.00602935
0.00585164
0.00564931
0.00544698
0.00521824
0.00498688
0.00474372
0.00449392
0.00423652
0.00396673
0.00369516
0.00341349
0.00313182
0.00285262
0.00257349
0.00243465
0.00229605
0.00215745
0.00201885
0.00188262
0.00174684
0.00161106
0.00147644
0.00134481
0.00121318
0.00108218
0.000955811
0.000829442
0.000705826
0.000585714
0.000467266
0.000353094
0.000240566
0.000184593
0.0001271
6.69146e-05
0
)


113
(
0
1.31329e-05
2.67338e-05
4.22133e-05
5.99399e-05
8.01094e-05
0.000103118
0.000129607
0.000158843
0.000190566
0.000226905
0.000266298
0.00030809
0.000355782
0.000406048
0.000460018
0.000519273
0.000581016
0.000648457
0.000719606
0.000794043
0.000874832
0.000958149
0.00104666
0.00114097
0.00123869
0.00134331
0.00144974
0.00155878
0.0016719
0.00178762
0.00190932
0.00203239
0.00215646
0.00228634
0.00241766
0.00255091
0.00268372
0.00281787
0.00295588
0.0030924
0.00322835
0.00336503
0.00350083
0.00363578
0.00377002
0.00390355
0.00403244
0.00415907
0.00428093
0.00439972
0.00451507
0.00462437
0.00472964
0.00482736
0.00492153
0.00500658
0.0050879
0.00515796
0.00522298
0.00527695
0.00532414
0.00536093
0.0053881
0.00540806
0.00541626
0.00541923
0.00540369
0.00538718
0.00534756
0.00530795
0.0052454
0.00517848
0.0050978
0.00500902
0.00490811
0.00478973
0.00466877
0.00453516
0.00440155
0.00424841
0.00409334
0.00392567
0.00375091
0.00356954
0.00337739
0.00318303
0.0029762
0.00276936
0.00255127
0.00233283
0.00222049
0.00210718
0.00199386
0.00188054
0.00176537
0.00164983
0.0015343
0.00141868
0.00130283
0.00118699
0.00107128
0.000956547
0.000841815
0.000727531
0.000613816
0.000499715
0.000384624
0.000265999
0.000205435
0.000140943
7.33441e-05
0
)


113
(
0
3.96307e-05
7.72677e-05
0.000115309
0.00015484
0.000196339
0.000240304
0.00028733
0.000336702
0.000388165
0.000443298
0.000500671
0.000559803
0.000622902
0.000687584
0.000754547
0.000824491
0.000895783
0.000970024
0.00104603
0.00112359
0.00120391
0.00128526
0.00136868
0.00145366
0.00153958
0.00162759
0.00171633
0.00180613
0.00189705
0.00198847
0.0020807
0.00217331
0.00226627
0.00236444
0.00246044
0.00255355
0.0026461
0.00273824
0.00282957
0.00291984
0.00300938
0.00309716
0.00319334
0.00329759
0.00339073
0.00348095
0.00356465
0.0036454
0.00371987
0.00378898
0.00385204
0.00390884
0.00396147
0.00400437
0.00404269
0.00404513
0.00403292
0.00404821
0.00407587
0.00409673
0.00411343
0.00412398
0.00412885
0.00412891
0.00412115
0.00411112
0.00409305
0.00407427
0.00403841
0.00400255
0.00395486
0.00390491
0.00384589
0.00378152
0.00371114
0.00363211
0.00355057
0.00345676
0.00336295
0.00325576
0.00314726
0.0030296
0.00290679
0.00277884
0.0026425
0.0025043
0.0023556
0.00220689
0.0020478
0.00188838
0.00180539
0.00172135
0.00163732
0.00155328
0.00146648
0.00137915
0.00129181
0.00120374
0.00111374
0.00102374
0.000933401
0.000840512
0.000747624
0.000652872
0.000555746
0.000456843
0.000353369
0.000244536
0.000188408
0.000128453
6.61423e-05
0
)


113
(
0
6.31322e-05
0.000121924
0.000178327
0.000233771
0.000288948
0.000344352
0.000400489
0.000457345
0.000514881
0.00057374
0.000633439
0.000693797
0.000755624
0.000818008
0.000881194
0.000945344
0.00100991
0.00107532
0.00114117
0.00120741
0.0012742
0.0013392
0.00139892
0.00146251
0.00152826
0.0015937
0.00165891
0.0017238
0.00178806
0.00185194
0.00191502
0.00197733
0.00203911
0.00209943
0.002159
0.00221759
0.00227452
0.00233055
0.00238498
0.00243774
0.00248943
0.00253875
0.00258653
0.00263284
0.00267629
0.00271877
0.00275788
0.00279564
0.00283053
0.00286324
0.0028935
0.00292075
0.00294599
0.0029675
0.00298727
0.00300282
0.00301665
0.00302606
0.00303347
0.00303664
0.0030372
0.00303397
0.00302724
0.00301759
0.00300317
0.00298699
0.00296454
0.00294176
0.00291095
0.00288015
0.00284211
0.00280269
0.00275772
0.00270948
0.00265757
0.00260035
0.0025428
0.00248361
0.00242443
0.00234891
0.00227177
0.00218918
0.00210352
0.00201473
0.00192082
0.00182574
0.001724
0.00162225
0.00151333
0.00140419
0.00134694
0.00128884
0.00123073
0.00117263
0.00111153
0.00104985
0.000988179
0.000925401
0.00085978
0.00079416
0.000727973
0.000657635
0.000587298
0.000514452
0.000438414
0.000360566
0.000278063
0.000191288
0.000146578
9.9331e-05
5.07102e-05
0
)


113
(
0
6.73341e-05
0.000130492
0.000190284
0.000247706
0.000303268
0.00035722
0.000409779
0.000461509
0.000512561
0.000562665
0.000612295
0.000661552
0.000710071
0.00075831
0.000806144
0.000853435
0.000900469
0.000946913
0.000992954
0.00103864
0.00108357
0.00112817
0.0011721
0.00121538
0.00125828
0.00130009
0.00134141
0.00138202
0.00142159
0.00146059
0.00149849
0.00153547
0.00157182
0.0016066
0.00164064
0.00167371
0.00170525
0.001736
0.00176537
0.00179336
0.00182047
0.00184574
0.00186984
0.00189283
0.00191375
0.00193398
0.00195185
0.0019688
0.00198381
0.0019974
0.00200937
0.00201942
0.00202818
0.00203463
0.00203999
0.00204278
0.00204452
0.00204364
0.00204157
0.00203702
0.00203095
0.00202271
0.00201246
0.00200058
0.00198601
0.00197046
0.00195143
0.00193223
0.00190864
0.00188505
0.00185754
0.00182929
0.00179807
0.00176509
0.00173015
0.00169238
0.00165378
0.00161114
0.00156849
0.00152136
0.00147377
0.00142298
0.00137039
0.00131586
0.00125817
0.00119969
0.00113675
0.00107381
0.00100551
0.000937047
0.000900558
0.000863358
0.000826157
0.000788956
0.000749016
0.000708554
0.000668093
0.000626615
0.000582524
0.000538433
0.000493861
0.000445764
0.000397667
0.000347709
0.000295381
0.000241896
0.000185437
0.000126595
9.64498e-05
6.50344e-05
3.29827e-05
0
)


113
(
0
4.72035e-05
9.22082e-05
0.000135122
0.000176307
0.000215939
0.000254025
0.000290516
0.000325911
0.000360363
0.000393292
0.000425355
0.000456737
0.000486663
0.000516026
0.000544578
0.000572085
0.000599119
0.000625116
0.000650478
0.000675276
0.000699032
0.000722378
0.000744889
0.000766695
0.000788083
0.000808405
0.000828285
0.000847529
0.000865916
0.000883865
0.000900967
0.000917413
0.000933418
0.000948362
0.000962838
0.000976694
0.000989616
0.00100207
0.00101372
0.00102459
0.00103498
0.00104435
0.00105311
0.00106129
0.0010684
0.00107517
0.00108075
0.00108588
0.00109007
0.00109357
0.00109631
0.00109814
0.00109938
0.00109955
0.00109922
0.00109773
0.00109577
0.00109264
0.00108897
0.00108422
0.00107879
0.00107241
0.00106515
0.00105718
0.00104804
0.00103846
0.00102737
0.0010162
0.0010031
0.000989995
0.000975148
0.000959967
0.000943431
0.000926099
0.000907845
0.000888266
0.000868285
0.000846338
0.000824391
0.000800156
0.000775696
0.000749519
0.000722378
0.000694145
0.000664131
0.000633653
0.000600544
0.000567435
0.00053109
0.000494645
0.000475064
0.000455055
0.000435046
0.000415037
0.000393448
0.000371558
0.000349667
0.000327235
0.000303407
0.00027958
0.000255521
0.000229768
0.000204015
0.000177465
0.000149902
0.000121898
9.27587e-05
6.2796e-05
4.75672e-05
3.19319e-05
1.61036e-05
0
)


113
(
0
4.81395e-06
9.51404e-06
1.40946e-05
1.85668e-05
2.29338e-05
2.71878e-05
3.13138e-05
3.5345e-05
3.9292e-05
4.30927e-05
4.68032e-05
5.04429e-05
5.39196e-05
5.73294e-05
6.06428e-05
6.38258e-05
6.69484e-05
6.99361e-05
7.28387e-05
7.56658e-05
7.83499e-05
8.09774e-05
8.3489e-05
8.5902e-05
8.82565e-05
9.04618e-05
9.26054e-05
9.46603e-05
9.65966e-05
9.84724e-05
0.000100232
0.000101903
0.000103514
0.000104984
0.000106392
0.000107719
0.000108924
0.000110071
0.000111114
0.00011206
0.000112945
0.000113706
0.000114393
0.000115008
0.000115497
0.000115945
0.000116254
0.000116512
0.00011666
0.00011673
0.000116714
0.000116596
0.000116412
0.00011611
0.000115752
0.000115269
0.000114734
0.000114072
0.000113354
0.000112519
0.000111613
0.000110607
0.000109509
0.000108336
0.000107041
0.000105703
0.000104208
0.000102705
0.000101006
9.93075e-05
9.74341e-05
9.55274e-05
9.34874e-05
9.13691e-05
8.91623e-05
8.6828e-05
8.44561e-05
8.19004e-05
7.93446e-05
7.65827e-05
7.38003e-05
7.08701e-05
6.78569e-05
6.4755e-05
6.15085e-05
5.82269e-05
5.47465e-05
5.12662e-05
4.75616e-05
4.38501e-05
4.19092e-05
3.99415e-05
3.79737e-05
3.6006e-05
3.39496e-05
3.18763e-05
2.9803e-05
2.77026e-05
2.55326e-05
2.33626e-05
2.11823e-05
1.89267e-05
1.66711e-05
1.43838e-05
1.20562e-05
9.71259e-06
7.32794e-06
4.91574e-06
3.70143e-06
2.47427e-06
1.24125e-06
0
)

)


10
(

113
(
0
4.03053e-29
9.32228e-29
1.53077e-28
2.18871e-28
2.92571e-28
3.79194e-28
4.88708e-28
6.39178e-28
8.61454e-28
1.20862e-27
1.78075e-27
2.79229e-27
4.74094e-27
8.78e-27
1.84514e-26
5.13254e-26
1.78422e-25
7.77359e-25
4.15208e-24
2.57401e-23
1.6575e-22
8.03355e-22
8.87487e-21
1.09235e-19
1.44894e-18
2.00395e-17
2.80532e-16
3.86691e-15
5.10277e-14
6.26518e-13
6.9822e-12
6.96656e-11
6.14436e-10
4.92046e-09
4.22498e-08
3.22045e-07
1.99176e-06
9.81236e-06
3.80698e-05
0.000116698
0.000290903
0.000592727
0.00102484
0.00156568
0.00218423
0.0028488
0.0035333
0.0042162
0.00487945
0.00550934
0.00609405
0.00662338
0.00708846
0.00748207
0.00777082
0.00796378
0.00806863
0.00808963
0.00800393
0.00784166
0.00763044
0.00737247
0.00708423
0.00679036
0.00649419
0.00621092
0.00593574
0.00567682
0.00543096
0.00519268
0.00496989
0.00475054
0.00453962
0.00433273
0.00412981
0.00393115
0.00373413
0.00354124
0.00334908
0.00316068
0.00297311
0.00278828
0.00260485
0.00242363
0.00224441
0.0020668
0.00189201
0.00171816
0.00154859
0.00138045
0.00129806
0.00121566
0.00113422
0.0010545
0.000974789
0.000896068
0.000819406
0.000742744
0.000667947
0.000594737
0.000521679
0.000452443
0.000383207
0.0003177
0.000252879
0.000192765
0.000135263
8.21322e-05
5.73358e-05
3.49698e-05
1.5068e-05
0
)


113
(
0
6.31076e-22
1.92762e-20
5.00693e-19
5.45691e-18
4.22367e-17
3.33586e-16
2.33357e-15
1.35368e-14
7.09356e-14
3.60304e-13
1.57333e-12
6.2029e-12
2.18787e-11
6.79986e-11
2.04321e-10
6.60877e-10
1.95454e-09
5.33775e-09
1.356e-08
3.22748e-08
7.23801e-08
1.54138e-07
3.43295e-07
7.24569e-07
1.45437e-06
2.78723e-06
5.12663e-06
9.09976e-06
1.56446e-05
2.60843e-05
4.21984e-05
6.63765e-05
0.00010159
0.000151467
0.000220683
0.000313497
0.000434358
0.000587617
0.000777314
0.00100621
0.00127715
0.00158981
0.00194153
0.00232844
0.00274522
0.00318489
0.00363903
0.00409918
0.00455358
0.00499269
0.00540715
0.00578923
0.0061329
0.00643375
0.00667301
0.00685733
0.00699117
0.00707667
0.00709877
0.00707004
0.00700436
0.0068988
0.00675031
0.00658206
0.00639139
0.00618075
0.00596322
0.00573667
0.00550819
0.0052786
0.00505211
0.00482746
0.00460786
0.0043923
0.0041807
0.00397467
0.00377081
0.00357312
0.00337648
0.00318515
0.00299493
0.00280844
0.00262361
0.00244145
0.00226156
0.0020835
0.00190858
0.00173471
0.00156522
0.0013972
0.00131489
0.00123258
0.00115122
0.00107161
0.000991997
0.000913368
0.000836777
0.000760185
0.000685422
0.000612215
0.000539151
0.000469717
0.000400284
0.000334366
0.000269094
0.00020821
0.000149367
9.40894e-05
6.79626e-05
4.3696e-05
2.11597e-05
0
)


113
(
0
2.3607e-09
8.31809e-09
2.2056e-08
4.82748e-08
9.60213e-08
1.78938e-07
3.17176e-07
5.43185e-07
8.99097e-07
1.44241e-06
2.24251e-06
3.38904e-06
5.00605e-06
7.25047e-06
1.03581e-05
1.46805e-05
2.04137e-05
2.79207e-05
3.75872e-05
4.9861e-05
6.52695e-05
8.43844e-05
0.000108658
0.000138264
0.000174172
0.000217021
0.000267712
0.000327019
0.000395723
0.00047499
0.000565556
0.000668129
0.000783274
0.00091177
0.00105412
0.00120967
0.00137817
0.00155992
0.00175294
0.00195823
0.00217375
0.00239765
0.00262966
0.00286611
0.00310658
0.00334792
0.00358798
0.00382494
0.00405546
0.00427803
0.00449005
0.00468966
0.0048753
0.00504568
0.00519435
0.00532311
0.00543292
0.00552404
0.00558916
0.00563093
0.00565435
0.00565671
0.00563172
0.00559151
0.00553277
0.00545055
0.0053574
0.00524561
0.00512
0.00498638
0.00483531
0.00468
0.00451409
0.00434294
0.00416663
0.0039854
0.00380228
0.0036161
0.00342957
0.00324241
0.00305551
0.00286951
0.00268449
0.00250107
0.00231964
0.00213983
0.00196325
0.00178775
0.00161714
0.00144821
0.00136571
0.0012832
0.00120161
0.00112165
0.00104169
0.000962514
0.000884941
0.000807369
0.000731139
0.000656054
0.000581122
0.000510063
0.000439004
0.000370682
0.000302861
0.000238241
0.000175366
0.000115373
8.65078e-05
5.88008e-05
3.10143e-05
0
)


113
(
0
1.20524e-06
2.78771e-06
5.02596e-06
7.99353e-06
1.18472e-05
1.6769e-05
2.29531e-05
3.06022e-05
3.99238e-05
5.11305e-05
6.44406e-05
8.00998e-05
9.83957e-05
0.000119598
0.000144004
0.000172263
0.000204198
0.000239807
0.000279704
0.000324157
0.000372832
0.000426713
0.000485911
0.000550907
0.000621315
0.000697092
0.000778206
0.000865021
0.0009578
0.00105603
0.00115947
0.00126833
0.00138256
0.00150115
0.00162466
0.00175214
0.00188352
0.00201789
0.00215441
0.00229353
0.00243303
0.00257421
0.00271476
0.00285558
0.00299395
0.00313089
0.00326496
0.00339476
0.00352004
0.00364053
0.00375511
0.00386334
0.00396481
0.00405898
0.00414314
0.00421814
0.00428457
0.00434255
0.00438858
0.0044236
0.00444976
0.00446557
0.00446737
0.00446094
0.0044443
0.00441364
0.00437603
0.00432605
0.00426569
0.0041993
0.0041173
0.00403088
0.00393316
0.00382858
0.00371725
0.00359683
0.0034729
0.00334003
0.00320551
0.0030619
0.00291687
0.0027671
0.0026149
0.00245883
0.00229993
0.00213876
0.00197525
0.00181098
0.00164962
0.00148863
0.00140854
0.00132845
0.00124875
0.00116976
0.00109078
0.00101228
0.00093482
0.000857356
0.000780904
0.000705314
0.000629809
0.000556461
0.000483113
0.000412015
0.000341331
0.000273411
0.000206597
0.000140984
0.000108289
7.47261e-05
3.93946e-05
0
)


113
(
0
1.1709e-05
2.36904e-05
3.72414e-05
5.26262e-05
7.01044e-05
8.98639e-05
0.000112026
0.000136672
0.00016386
0.000193641
0.000226059
0.000261154
0.000298969
0.000339538
0.000383102
0.000429857
0.000479462
0.000531916
0.000587213
0.000645342
0.000706277
0.000769992
0.00083683
0.00090709
0.000981239
0.00105755
0.00113557
0.00121546
0.00129709
0.00138046
0.00146526
0.00155138
0.00163865
0.00172653
0.00181462
0.00190458
0.00199496
0.00208304
0.00217249
0.00226137
0.00234968
0.00243641
0.0025215
0.00260501
0.00268705
0.00276657
0.00284341
0.00291735
0.0029879
0.00305526
0.00311911
0.00317909
0.00323498
0.00328669
0.00333272
0.00337405
0.00341064
0.00344247
0.0034678
0.00348758
0.00350265
0.003512
0.00351332
0.00351016
0.00350154
0.00348357
0.00346155
0.00343298
0.00339722
0.00335729
0.0033069
0.00325272
0.00318852
0.00311885
0.00304381
0.0029622
0.00287804
0.00278731
0.00269522
0.00259471
0.00249226
0.00238336
0.00227156
0.00215514
0.00203511
0.00191215
0.00178509
0.00165666
0.00152391
0.00139019
0.0013222
0.00125422
0.00118589
0.00111693
0.00104798
0.000978931
0.000909675
0.000840419
0.000771344
0.000702425
0.000633536
0.000565396
0.000497256
0.000429753
0.00036236
0.000294985
0.000226912
0.000157113
0.000121204
8.33158e-05
4.33486e-05
0
)


113
(
0
3.10253e-05
6.02128e-05
8.95593e-05
0.000119879
0.00015162
0.000185052
0.000220302
0.000257402
0.000296328
0.00033703
0.000379447
0.000423513
0.000469167
0.000516343
0.00056508
0.000615374
0.000666976
0.000719817
0.000773829
0.000828944
0.000885088
0.000942189
0.00100028
0.00105912
0.00111862
0.0011787
0.00123925
0.00130018
0.00136139
0.00142277
0.00148421
0.00154561
0.00160702
0.00167148
0.00173222
0.00179244
0.00185203
0.00191087
0.00196885
0.00202585
0.00208174
0.0021364
0.00219241
0.00226368
0.00232224
0.00237633
0.00242767
0.00247396
0.00251695
0.0025561
0.00259111
0.00262201
0.00264905
0.00267246
0.0026891
0.00269977
0.00268999
0.00266438
0.00267469
0.00268141
0.00268523
0.00268566
0.00268138
0.00267428
0.00266369
0.00265442
0.00264163
0.00261806
0.00259052
0.00256066
0.0025245
0.00248642
0.00244331
0.00239675
0.00234679
0.00229184
0.00223494
0.00217175
0.00210741
0.00203674
0.00196454
0.00188721
0.00180743
0.00172375
0.00163679
0.00154718
0.00145356
0.00135859
0.00125902
0.00115827
0.00110654
0.00105481
0.00100254
0.000949295
0.00089605
0.000842421
0.000787998
0.000733576
0.000678593
0.000623133
0.000567627
0.000510963
0.000454298
0.000396152
0.000337729
0.000276773
0.00021406
0.000148251
0.000114013
7.78489e-05
4.00587e-05
0
)


113
(
0
4.55643e-05
8.77359e-05
0.000128045
0.000167532
0.000206709
0.000245933
0.000285444
0.000325387
0.00036584
0.000406832
0.000448366
0.000490426
0.000532985
0.00057601
0.000619488
0.000663382
0.000707589
0.00075206
0.000796747
0.000841601
0.000886571
0.000931606
0.000966848
0.00100942
0.00105297
0.00109624
0.00113917
0.0011817
0.00122376
0.00126531
0.00130627
0.00134658
0.00138619
0.00142503
0.00146302
0.00150011
0.00153627
0.00157142
0.00160551
0.00163849
0.00167026
0.00170078
0.00173001
0.0017579
0.0017844
0.00180946
0.00183303
0.00185496
0.00187521
0.00189381
0.0019107
0.00192587
0.00193931
0.00195101
0.00196044
0.0019679
0.00197354
0.0019774
0.0019788
0.00197797
0.00197535
0.00197065
0.00196306
0.00195375
0.00194231
0.00192781
0.00191176
0.00189291
0.00187156
0.00184877
0.00182203
0.00179407
0.00176296
0.00172966
0.00169421
0.00165558
0.00161572
0.00157873
0.00154101
0.00149097
0.00143997
0.00138578
0.00133004
0.00127183
0.00121147
0.0011494
0.00108458
0.00101884
0.000949695
0.000879547
0.000843312
0.000807076
0.00077026
0.000732395
0.000694529
0.000656104
0.000616523
0.000576943
0.000536321
0.000494814
0.000453221
0.000409451
0.000365682
0.00031964
0.000273179
0.000223714
0.000172598
0.000118806
9.0879e-05
6.16563e-05
3.1456e-05
0
)


113
(
0
4.60458e-05
8.90847e-05
0.000129739
0.000168717
0.000206323
0.000242804
0.000278372
0.000313197
0.00034741
0.000381104
0.000414349
0.000447194
0.00047967
0.000511802
0.000543578
0.000574983
0.000606057
0.000636791
0.000667174
0.000697192
0.000726828
0.00075606
0.000784798
0.000813086
0.000840901
0.000868217
0.000895009
0.00092125
0.000946913
0.000971973
0.000996402
0.00102017
0.00104326
0.00106563
0.00108725
0.00110811
0.00112818
0.00114745
0.00116589
0.00118348
0.00120016
0.00121594
0.00123079
0.0012447
0.00125766
0.00126964
0.00128062
0.00129052
0.00129934
0.00130709
0.00131377
0.00131937
0.00132389
0.00132736
0.00132944
0.00133034
0.00133016
0.00132892
0.00132625
0.00132227
0.00131727
0.00131106
0.00130321
0.00129438
0.00128435
0.00127261
0.00126
0.00124583
0.00123029
0.00121394
0.00119543
0.00117625
0.00115535
0.00113325
0.00110998
0.00108497
0.00105929
0.00103138
0.00100306
0.00097245
0.000941262
0.000908149
0.000874061
0.000838422
0.000801362
0.00076316
0.000722991
0.000682166
0.000638642
0.000594247
0.000571033
0.000547819
0.000524053
0.000499289
0.000474525
0.00044921
0.000422754
0.000396298
0.000368843
0.000340537
0.000312155
0.000281848
0.000251541
0.000219446
0.000187023
0.000152519
0.000117001
7.99113e-05
6.07995e-05
4.1031e-05
2.0799e-05
0
)


113
(
0
3.12401e-05
6.09746e-05
8.92963e-05
0.000116465
0.00014255
0.000167617
0.000191743
0.000215003
0.000237466
0.000259192
0.000280231
0.000300626
0.00032041
0.000339614
0.000358225
0.000376237
0.000393738
0.000410742
0.00042726
0.000443303
0.000458877
0.000473988
0.000488573
0.00050271
0.000516403
0.000529652
0.000542459
0.000554822
0.000566742
0.000578217
0.000589247
0.000599828
0.00060996
0.000619638
0.000628851
0.000637606
0.000645905
0.000653745
0.000661121
0.000668033
0.000674461
0.000680409
0.00068588
0.000690873
0.000695384
0.000699412
0.000702955
0.000705974
0.000708473
0.000710473
0.000711969
0.000712965
0.000713468
0.000713487
0.000712878
0.00071174
0.000710117
0.000708025
0.000705293
0.00070199
0.000698232
0.000693947
0.00068894
0.000683506
0.000677542
0.000670827
0.00066373
0.000655943
0.000647541
0.000638784
0.000629047
0.000619006
0.000608172
0.000596777
0.000584831
0.000572045
0.000558934
0.000544711
0.000530278
0.000514655
0.000498719
0.000481738
0.000464204
0.000445789
0.000426533
0.000406599
0.00038546
0.000363918
0.000340688
0.000316914
0.000304392
0.000291869
0.000279011
0.000265545
0.000252079
0.000238294
0.00022385
0.000209406
0.000194426
0.000178989
0.000163514
0.000147094
0.000130675
0.000113458
9.60961e-05
7.78919e-05
5.93119e-05
4.01657e-05
3.03981e-05
2.04177e-05
1.02938e-05
0
)


113
(
0
3.11663e-06
6.15822e-06
9.12182e-06
1.20157e-05
1.48386e-05
1.75894e-05
2.02681e-05
2.28756e-05
2.54133e-05
2.78823e-05
3.0284e-05
3.26195e-05
3.48896e-05
3.70951e-05
3.9232e-05
4.12973e-05
4.32996e-05
4.52395e-05
4.71172e-05
4.8933e-05
5.06872e-05
5.23797e-05
5.40015e-05
5.55631e-05
5.70645e-05
5.85058e-05
5.98873e-05
6.12089e-05
6.24709e-05
6.36735e-05
6.48166e-05
6.59005e-05
6.69254e-05
6.78912e-05
6.87969e-05
6.96441e-05
7.04335e-05
7.11651e-05
7.18391e-05
7.24558e-05
7.30134e-05
7.35129e-05
7.39553e-05
7.43408e-05
7.46696e-05
7.49419e-05
7.51579e-05
7.53138e-05
7.54104e-05
7.54507e-05
7.54343e-05
7.53621e-05
7.52353e-05
7.50549e-05
7.48059e-05
7.44993e-05
7.41402e-05
7.37304e-05
7.3252e-05
7.27127e-05
7.21251e-05
7.14817e-05
7.07622e-05
6.99981e-05
6.91785e-05
6.82809e-05
6.73437e-05
6.63355e-05
6.52645e-05
6.4157e-05
6.29505e-05
6.17133e-05
6.03969e-05
5.90251e-05
5.75991e-05
5.60916e-05
5.45527e-05
5.29084e-05
5.12445e-05
4.94711e-05
4.76698e-05
4.57757e-05
4.38345e-05
4.18183e-05
3.97341e-05
3.75952e-05
3.53646e-05
3.31034e-05
3.07227e-05
2.83064e-05
2.70567e-05
2.5807e-05
2.45372e-05
2.3231e-05
2.19248e-05
2.06013e-05
1.92417e-05
1.78822e-05
1.6496e-05
1.50872e-05
1.36768e-05
1.22236e-05
1.07705e-05
9.28457e-06
7.79264e-06
6.26867e-06
4.73139e-06
3.17444e-06
2.38947e-06
1.59767e-06
8.01411e-07
0
)

)


10
(

113
(
0
2.12415e-25
4.91692e-25
8.065e-25
1.15131e-24
1.54409e-24
2.0016e-24
2.59962e-24
3.4627e-24
4.87965e-24
7.51158e-24
1.28675e-23
2.45e-23
5.05692e-23
1.19262e-22
3.83667e-22
1.4645e-21
5.98308e-21
2.0825e-20
8.9075e-20
5.50815e-19
3.6815e-18
2.54067e-17
1.51462e-16
5.93769e-16
5.177e-15
4.43792e-14
3.55758e-13
2.5105e-12
1.35067e-11
7.07733e-11
5.89091e-10
4.181e-09
2.526e-08
1.35291e-07
6.66545e-07
2.78364e-06
9.89091e-06
3.04e-05
9.00364e-05
0.000218727
0.0004644
0.000816455
0.0012934
0.00185091
0.00244
0.00304455
0.00361333
0.00410833
0.00455
0.00486538
0.00512333
0.00529769
0.00539286
0.00540714
0.00536429
0.00528143
0.00516
0.00501333
0.004865
0.004715
0.00455375
0.00439313
0.00423688
0.00408706
0.00394
0.00380111
0.00366333
0.00353
0.00339667
0.00326333
0.00313105
0.00299947
0.00287158
0.00274526
0.002624
0.002504
0.002384
0.002264
0.002144
0.002024
0.001908
0.001793
0.00167316
0.00155211
0.001441
0.001331
0.001215
0.00109917
0.000990833
0.000883412
0.000830765
0.000778118
0.000725875
0.00067525
0.000624625
0.000574
0.000527333
0.000480667
0.000434
0.000384417
0.000334833
0.000288818
0.000245182
0.000202556
0.000161444
0.000121814
8.47667e-05
5.41e-05
3.935e-05
2.34e-05
1.02925e-05
0
)


113
(
0
3.20931e-21
1.01314e-19
1.55236e-18
1.50222e-17
1.13041e-16
8.67456e-16
5.85232e-15
3.46613e-14
1.85346e-13
8.99632e-13
3.77118e-12
1.31143e-11
4.05893e-11
1.34368e-10
4.41645e-10
1.34878e-09
3.76789e-09
8.73231e-09
2.11111e-08
5.42712e-08
1.23713e-07
2.66647e-07
5.41386e-07
1.03828e-06
2.06965e-06
3.91691e-06
7.06832e-06
1.22063e-05
2.02366e-05
3.31593e-05
5.31199e-05
8.28717e-05
0.000124509
0.00018082
0.000256765
0.000355372
0.000480077
0.000633661
0.000821895
0.00104191
0.00129106
0.00156944
0.0018697
0.00218814
0.00251578
0.00284475
0.00316662
0.0034749
0.00376195
0.00401146
0.00422964
0.00440956
0.00455378
0.00465449
0.00471187
0.00473898
0.00473694
0.00469277
0.00463103
0.00455173
0.00444922
0.00433921
0.00421771
0.00408956
0.00395857
0.00382357
0.00368853
0.00355332
0.00341886
0.0032855
0.00315382
0.00302327
0.00289488
0.00276741
0.00264226
0.0025177
0.00239521
0.00227324
0.002153
0.00203318
0.00191487
0.00179693
0.00168043
0.00156429
0.00144996
0.00133584
0.00122388
0.00111246
0.00100368
0.000895941
0.000843272
0.000790603
0.000738306
0.000687497
0.000636688
0.000585878
0.000537093
0.000488307
0.000439522
0.000392896
0.00034627
0.000301143
0.000257015
0.000214055
0.000172847
0.00013349
9.58884e-05
6.03704e-05
4.41909e-05
2.84729e-05
1.41079e-05
0
)


113
(
0
2.812e-09
9.86538e-09
2.51891e-08
5.40675e-08
1.06467e-07
1.97161e-07
3.49056e-07
6.01761e-07
9.89416e-07
1.56733e-06
2.41471e-06
3.61343e-06
5.28692e-06
7.65616e-06
1.09238e-05
1.52883e-05
2.09767e-05
2.80604e-05
3.76773e-05
5.01112e-05
6.51372e-05
8.3661e-05
0.000106279
0.000133403
0.000166607
0.000205625
0.000251137
0.000303652
0.000363491
0.00043236
0.000510611
0.000598262
0.000695021
0.000800575
0.000915155
0.00103857
0.00117141
0.00131088
0.00145828
0.00161207
0.00177021
0.00193192
0.00209562
0.00225962
0.00242264
0.00258303
0.00273902
0.00288968
0.00303313
0.00316511
0.00328773
0.00339886
0.00349895
0.00358485
0.00365522
0.00371356
0.00375964
0.00378456
0.00379848
0.0038014
0.003785
0.00376054
0.00372224
0.00367123
0.00361475
0.00354184
0.00346614
0.00337928
0.00328798
0.00319005
0.00308729
0.0029813
0.00287107
0.00275903
0.00264409
0.00252843
0.00241133
0.00229386
0.00217605
0.00205816
0.00194081
0.00182358
0.00170756
0.00159184
0.00147798
0.00136432
0.00125293
0.00114205
0.00103358
0.000926134
0.000873609
0.000821084
0.000768892
0.000718031
0.00066717
0.000616309