/*--------------------------------*- C++ -*----------------------------------*\
| =========                 |                                                 |
| \\      /  F ield         | OpenFOAM: The Open Source CFD Toolbox           |
|  \\    /   O peration     | Version:  2.3.0                                 |
|   \\  /    A nd           | Web:      www.OpenFOAM.org                      |
|    \\/     M anipulation  |                                                 |
\*---------------------------------------------------------------------------*/
FoamFile
{
    version     2.0;
    format      ascii;
    class       dictionary;
    location    "constant";
    object      C2H4;
}
// * * * * * * * * * * * * * * * * * * * * * * * * * * * * * * * * * * * * * //

C2H4_table
13
(

10
(

113
(
0
2.74833e-27
4.62301e-27
5.4825e-27
5.50737e-27
4.90762e-27
3.89175e-27
2.79905e-27
1.82531e-27
9.96993e-28
5.2547e-28
2.2761e-28
6.62e-29
2.9961e-29
6.56845e-30
1.66224e-30
3.56975e-31
2.9839e-32
8.30098e-32
6.48405e-31
1.66804e-30
2.99389e-29
4.52232e-28
1.98736e-27
6.8697e-26
3.48012e-25
9.24863e-24
3.77516e-22
1.26292e-21
7.66903e-20
2.16556e-18
1.17587e-17
5.38987e-16
2.5878e-15
6.29777e-14
1.41804e-12
4.48931e-12
1.00198e-10
1.03438e-09
4.19134e-09
4.27157e-08
1.39599e-07
5.47922e-07
1.45406e-06
2.83849e-06
5.47803e-06
8.57218e-06
1.34102e-05
1.9087e-05
2.65465e-05
3.56775e-05
4.66936e-05
6.06313e-05
7.65167e-05
9.72711e-05
0.000120317
0.000151604
0.000186257
0.000233667
0.000286807
0.000359257
0.000443543
0.000553009
0.00068572
0.000844
0.001044
0.00126257
0.00154697
0.00183418
0.00218873
0.00254327
0.00290407
0.00326606
0.00356459
0.00382586
0.00400746
0.00407442
0.0041142
0.00402128
0.00392836
0.00375163
0.00356661
0.00336124
0.00314442
0.0029265
0.00270677
0.00248835
0.00227734
0.00206633
0.00186043
0.00165469
0.00155439
0.0014549
0.00135541
0.00125592
0.00116166
0.0010684
0.000975146
0.00088319
0.000794582
0.000705975
0.000618104
0.000535642
0.000453179
0.000373796
0.000298333
0.00022516
0.000157877
9.54589e-05
6.58086e-05
3.96657e-05
1.67286e-05
0
)


113
(
0
2.142e-25
7.37358e-24
1.85876e-22
2.44089e-21
2.36702e-20
1.28374e-19
1.11942e-18
9.44214e-18
3.59153e-17
2.1496e-16
1.12084e-15
2.59781e-15
1.49197e-14
6.24929e-14
1.60794e-13
6.51283e-13
1.70703e-12
5.04389e-12
1.48689e-11
3.04477e-11
9.82102e-11
2.24544e-10
5.01079e-10
1.16059e-09
2.07115e-09
4.72742e-09
9.40939e-09
1.70064e-08
3.36977e-08
5.78703e-08
1.01634e-07
1.77164e-07
2.74934e-07
4.67262e-07
7.3175e-07
1.09189e-06
1.69358e-06
2.45627e-06
3.53899e-06
5.07843e-06
6.93956e-06
9.65501e-06
1.30864e-05
1.72057e-05
2.30675e-05
2.95907e-05
3.87788e-05
4.93523e-05
6.28695e-05
7.93704e-05
9.9236e-05
0.000124572
0.000153555
0.000191504
0.000233672
0.00028904
0.000349801
0.000428006
0.00051405
0.000620132
0.000738496
0.000876201
0.00103176
0.00120146
0.00139423
0.00159322
0.00181425
0.00203562
0.00226503
0.00249443
0.00270659
0.00291546
0.00309082
0.0032465
0.00337002
0.00344725
0.00350937
0.00349764
0.00348591
0.00340035
0.00330747
0.00317608
0.00302301
0.00285691
0.00266957
0.00248018
0.00227915
0.00207812
0.00187614
0.00167412
0.00157524
0.00147703
0.00137882
0.00128062
0.00118605
0.00109218
0.000998312
0.000905902
0.000817244
0.000728587
0.000640641
0.000557916
0.000475191
0.000395353
0.000319189
0.00024493
0.000175572
0.000110448
7.92312e-05
5.0942e-05
2.4569e-05
0
)


113
(
0
9.07274e-12
3.29075e-11
8.95935e-11
2.03571e-10
4.12008e-10
7.87521e-10
1.49899e-09
2.67375e-09
4.34454e-09
7.43282e-09
1.21698e-08
1.82022e-08
2.96003e-08
4.47983e-08
6.54645e-08
9.87557e-08
1.39538e-07
2.01483e-07
2.86524e-07
3.92046e-07
5.5429e-07
7.48415e-07
1.01534e-06
1.37494e-06
1.79081e-06
2.40943e-06
3.14855e-06
4.06106e-06
5.30171e-06
6.73852e-06
8.60464e-06
1.09293e-05
1.3568e-05
1.72307e-05
2.13964e-05
2.6229e-05
3.26579e-05
3.98654e-05
4.8416e-05
5.90376e-05
7.09579e-05
8.55791e-05
0.000102346
0.000121175
0.000144573
0.00016953
0.000200052
0.000233222
0.000272021
0.000315018
0.000362749
0.000417193
0.000476113
0.000542837
0.000613234
0.000692743
0.000775975
0.000867841
0.000963586
0.0010665
0.00117381
0.0012857
0.00140181
0.0015197
0.0016405
0.00176108
0.00188091
0.00200041
0.00211212
0.00222383
0.00232171
0.00241695
0.00249709
0.00256838
0.0026268
0.00266672
0.00270045
0.00270394
0.00270743
0.00267525
0.00263955
0.00257921
0.00250502
0.00241762
0.00230867
0.00219561
0.00205935
0.00192308
0.00176847
0.0016133
0.00153129
0.00144789
0.00136448
0.00128107
0.00119572
0.00111
0.00102427
0.000938479
0.000852511
0.000766544
0.000681027
0.000598821
0.000516614
0.00043609
0.000357707
0.000280588
0.000206721
0.000136163
0.000101881
6.92543e-05
3.64308e-05
0
)


113
(
0
2.27244e-08
5.45342e-08
1.02069e-07
1.68694e-07
2.5847e-07
3.79141e-07
5.46578e-07
7.58713e-07
1.01408e-06
1.3665e-06
1.79908e-06
2.29463e-06
2.98973e-06
3.78477e-06
4.72362e-06
5.94111e-06
7.29665e-06
8.98617e-06
1.09596e-05
1.31847e-05
1.60499e-05
1.91518e-05
2.2725e-05
2.70859e-05
3.19095e-05
3.76996e-05
4.40378e-05
5.11648e-05
5.95399e-05
6.86502e-05
7.9352e-05
9.11267e-05
0.000103639
0.000118655
0.000134819
0.000152504
0.000172545
0.000193905
0.000217713
0.000243364
0.000270446
0.000301959
0.000334789
0.000368885
0.000407487
0.000447358
0.000490557
0.000535758
0.00058521
0.000636034
0.000688405
0.000744286
0.000802506
0.000863379
0.000925501
0.000989909
0.00105525
0.00112258
0.0011908
0.00125957
0.00132867
0.0013974
0.00146579
0.00153314
0.00159878
0.00166329
0.00172374
0.00178389
0.00183648
0.00188908
0.00193252
0.00197421
0.00200763
0.00203618
0.0020582
0.00207082
0.00208035
0.00207476
0.00206918
0.00204458
0.0020181
0.00197952
0.00193413
0.00187928
0.00180899
0.00173582
0.00164633
0.00155685
0.00145187
0.0013464
0.00128819
0.00122824
0.00116829
0.00110834
0.00104385
0.000978504
0.000913155
0.000846822
0.00077796
0.000709099
0.000640047
0.000569602
0.000499157
0.000428843
0.000358695
0.000288894
0.000219984
0.000151052
0.000116457
8.04433e-05
4.2513e-05
0
)


113
(
0
8.11242e-07
1.68801e-06
2.72739e-06
3.95964e-06
5.40713e-06
7.11388e-06
9.15661e-06
1.14786e-05
1.40581e-05
1.71426e-05
2.0584e-05
2.43057e-05
2.87655e-05
3.35708e-05
3.88733e-05
4.49385e-05
5.13761e-05
5.87005e-05
6.66492e-05
7.51515e-05
8.48141e-05
9.49685e-05
0.000106156
0.000118362
0.000131178
0.000145757
0.000160939
0.00017699
0.000194338
0.000212461
0.000232277
0.000253353
0.000275254
0.000298073
0.000322072
0.000347635
0.000374841
0.000402809
0.000432051
0.000462716
0.000494271
0.000527665
0.000562043
0.000597369
0.000633092
0.000669254
0.000708352
0.000747821
0.00078808
0.000828427
0.000868874
0.000910134
0.000951936
0.000993938
0.00103603
0.00107821
0.00112042
0.00116177
0.00120274
0.00124272
0.00128209
0.00132012
0.00135689
0.00139206
0.00142463
0.00145638
0.00148523
0.00151382
0.00153581
0.00155781
0.00157288
0.00158662
0.00159596
0.0016027
0.00160399
0.00159745
0.0015897
0.00157604
0.00156238
0.00153834
0.00151328
0.00148048
0.00144332
0.00140144
0.00135184
0.00130038
0.00123837
0.00117636
0.00110281
0.00102889
0.000987835
0.000945479
0.000903124
0.000860768
0.000814614
0.000767737
0.00072086
0.000673034
0.000622768
0.000572501
0.000521959
0.000469393
0.000416828
0.000363454
0.000309051
0.000253941
0.000197008
0.000137362
0.000106624
7.3411e-05
3.83645e-05
0
)


113
(
0
4.7923e-06
9.46882e-06
1.43283e-05
1.95012e-05
2.50545e-05
3.10761e-05
3.76887e-05
4.47687e-05
5.22709e-05
6.05469e-05
6.93236e-05
7.84936e-05
8.86089e-05
9.91284e-05
0.00011023
0.000122149
0.000134452
0.000147629
0.000161373
0.00017562
0.000190841
0.000206452
0.000222868
0.000239974
0.00025749
0.000276053
0.000295048
0.000314664
0.000335098
0.000355946
0.000377576
0.000399788
0.000422405
0.000446656
0.000470964
0.000495347
0.000520392
0.000545745
0.000571613
0.000597914
0.000624474
0.000651512
0.000680941
0.000712669
0.000743342
0.000773617
0.000802298
0.000831003
0.000859758
0.000887618
0.00091447
0.000940449
0.000965847
0.000989513
0.00101237
0.00102679
0.00103778
0.00105595
0.00107735
0.00109737
0.00111655
0.00113432
0.00115081
0.00116609
0.00117939
0.0011921
0.00120269
0.00121307
0.00121823
0.0012234
0.00122464
0.00122513
0.00122234
0.00121763
0.00121056
0.00120012
0.00118862
0.00117192
0.00115522
0.00113239
0.00110896
0.00108096
0.00105041
0.00101707
0.000979173
0.000940174
0.000894924
0.000849673
0.000797547
0.000745208
0.000716565
0.000687142
0.000657718
0.000628294
0.00059646
0.000564167
0.000531874
0.000498864
0.000464009
0.000429153
0.000393992
0.000356584
0.000319176
0.000280457
0.000240069
0.000198638
0.000154524
0.000107561
8.31777e-05
5.68551e-05
2.93669e-05
0
)


113
(
0
1.15147e-05
2.24123e-05
3.3048e-05
4.36661e-05
5.43911e-05
6.53304e-05
7.66106e-05
8.81843e-05
0.000100029
0.000112385
0.000125072
0.000138019
0.000151575
0.000165381
0.000179546
0.000194189
0.00020905
0.000224393
0.000240027
0.000255921
0.000272284
0.000288443
0.000303873
0.000320298
0.000337288
0.000354608
0.000372045
0.00038965
0.00040744
0.000425313
0.000443326
0.000461411
0.000479543
0.000497731
0.000515916
0.000534098
0.000552218
0.000570289
0.000588256
0.000606075
0.000623792
0.000641252
0.000658514
0.000675587
0.000692244
0.000708753
0.000724714
0.000740432
0.000755637
0.000770419
0.000784726
0.0007984
0.000811654
0.000824072
0.000836097
0.000847113
0.000857718
0.000867199
0.000876175
0.000884007
0.000891138
0.000897194
0.000902256
0.000906445
0.000909207
0.000911414
0.000911648
0.000911772
0.000909246
0.00090672
0.000901683
0.000896169
0.000888634
0.000879913
0.000869789
0.000857645
0.0008453
0.000831967
0.000818634
0.000799101
0.000778954
0.000756362
0.000732394
0.000706946
0.000679086
0.00065064
0.000618878
0.000587116
0.000551607
0.000515981
0.000496712
0.000476983
0.000457255
0.000437526
0.000416159
0.00039448
0.000372802
0.000350537
0.000326764
0.000302992
0.000278935
0.000252791
0.000226647
0.000199308
0.000170449
0.000140761
0.000108945
7.52258e-05
5.77789e-05
3.92188e-05
2.00617e-05
0
)


113
(
0
1.60626e-05
3.12625e-05
4.57906e-05
5.98666e-05
7.36063e-05
8.70748e-05
0.000100338
0.000113496
0.000126576
0.000139575
0.00015255
0.000165507
0.000178452
0.000191398
0.000204345
0.000217294
0.000230244
0.00024319
0.000256125
0.000269051
0.000281939
0.000294806
0.000307624
0.000320381
0.000333101
0.000345698
0.000358231
0.00037067
0.000382958
0.000395161
0.000407188
0.000419056
0.000430817
0.000442291
0.000453622
0.000464766
0.0004756
0.00048627
0.000496647
0.000506721
0.000516603
0.000526061
0.000535247
0.00054417
0.000552589
0.000560839
0.000568496
0.000575915
0.00058283
0.000589365
0.000595469
0.000601045
0.000606268
0.000610835
0.000615095
0.000618608
0.000621817
0.00062424
0.000626308
0.000627615
0.000628455
0.00062861
0.000628133
0.000627123
0.000625243
0.000623037
0.000619675
0.00061625
0.000611326
0.000606402
0.000600104
0.000593544
0.000585911
0.000577648
0.000568657
0.000558619
0.000548267
0.000536379
0.00052449
0.000510848
0.000497033
0.000481936
0.000466118
0.000449508
0.000431607
0.000413377
0.000393289
0.000373202
0.000350861
0.00032845
0.000316293
0.000303835
0.000291377
0.000278919
0.000265312
0.000251486
0.000237661
0.000223413
0.000208081
0.00019275
0.000177221
0.000160249
0.000143277
0.000125552
0.000106869
8.77229e-05
6.7385e-05
4.60996e-05
3.5169e-05
2.37357e-05
1.20513e-05
0
)


113
(
0
1.35458e-05
2.65099e-05
3.89228e-05
5.08818e-05
6.24345e-05
7.35837e-05
8.43189e-05
9.47707e-05
0.000104979
0.000114795
0.000124389
0.000133808
0.000142855
0.000151758
0.000160454
0.000168884
0.000177192
0.000185234
0.000193114
0.000200849
0.000208315
0.000215674
0.000222817
0.000229775
0.000236624
0.000243192
0.000249642
0.000255922
0.000261972
0.000267904
0.000273606
0.000279128
0.000284529
0.000289636
0.000294611
0.000299413
0.000303951
0.000308357
0.00031253
0.00031648
0.000320289
0.000323803
0.000327137
0.000330297
0.000333141
0.000335881
0.000338264
0.000340512
0.000342471
0.00034422
0.000345733
0.000346965
0.000348011
0.000348723
0.000349276
0.000349461
0.000349495
0.000349152
0.000348638
0.000347769
0.000346681
0.00034528
0.000343591
0.000341662
0.000339344
0.000336881
0.000333907
0.000330905
0.000327246
0.000323587
0.000319328
0.000314953
0.000310107
0.000304984
0.000299537
0.000293624
0.000287569
0.000280816
0.000274063
0.000266491
0.000258839
0.000250568
0.000241949
0.000232934
0.000223272
0.000213441
0.000202651
0.000191861
0.000179886
0.000167875
0.000161371
0.00015471
0.00014805
0.000141389
0.000134148
0.000126796
0.000119445
0.000111894
0.000103831
9.57687e-05
8.76213e-05
7.8852e-05
7.00828e-05
6.10217e-05
5.1589e-05
4.19947e-05
3.19846e-05
2.16731e-05
1.64268e-05
1.10318e-05
5.56623e-06
0
)


113
(
0
1.57776e-06
3.11862e-06
4.62072e-06
6.08767e-06
7.52051e-06
8.91668e-06
1.02713e-05
1.15951e-05
1.28916e-05
1.41406e-05
1.53602e-05
1.65568e-05
1.77005e-05
1.88223e-05
1.99128e-05
2.09609e-05
2.19892e-05
2.29737e-05
2.39304e-05
2.48624e-05
2.57479e-05
2.66149e-05
2.74441e-05
2.82411e-05
2.9019e-05
2.97482e-05
3.04572e-05
3.11372e-05
3.17784e-05
3.23998e-05
3.29832e-05
3.35376e-05
3.40724e-05
3.45608e-05
3.50291e-05
3.54706e-05
3.58724e-05
3.62548e-05
3.66032e-05
3.69198e-05
3.72165e-05
3.74723e-05
3.77037e-05
3.79116e-05
3.80779e-05
3.82307e-05
3.83377e-05
3.84278e-05
3.84818e-05
3.85103e-05
3.851e-05
3.84764e-05
3.84207e-05
3.83261e-05
3.82133e-05
3.80587e-05
3.78871e-05
3.76737e-05
3.74415e-05
3.71708e-05
3.68764e-05
3.6549e-05
3.61909e-05
3.58082e-05
3.5385e-05
3.49472e-05
3.44576e-05
3.39652e-05
3.34078e-05
3.28504e-05
3.22349e-05
3.16084e-05
3.09375e-05
3.02406e-05
2.95142e-05
2.87453e-05
2.79639e-05
2.71212e-05
2.62785e-05
2.5367e-05
2.44488e-05
2.34811e-05
2.24858e-05
2.14608e-05
2.03875e-05
1.93025e-05
1.81511e-05
1.69996e-05
1.57731e-05
1.45443e-05
1.39015e-05
1.32496e-05
1.25977e-05
1.19458e-05
1.12642e-05
1.0577e-05
9.88974e-06
9.19342e-06
8.47376e-06
7.75411e-06
7.03101e-06
6.28266e-06
5.53431e-06
4.77533e-06
4.00282e-06
3.22495e-06
2.43331e-06
1.63243e-06
1.22923e-06
8.2172e-07
4.12239e-07
0
)

)


10
(

113
(
0
3.37016e-27
5.97283e-27
7.49464e-27
8.06684e-27
7.78168e-27
6.81543e-27
5.42397e-27
3.89897e-27
2.50734e-27
1.42483e-27
7.02761e-28
2.9299e-28
1.00418e-28
2.76957e-29
6.79806e-30
1.57305e-30
5.89892e-30
3.53033e-29
2.28443e-28
1.60717e-27
1.11276e-26
5.54434e-26
6.32402e-25
7.84952e-24
1.03678e-22
1.42164e-21
1.97692e-20
2.72519e-19
3.6352e-18
4.5765e-17
5.32164e-16
5.65288e-15
5.41523e-14
4.78439e-13
4.94386e-12
5.1461e-11
5.0069e-10
4.43329e-09
3.31542e-08
1.94008e-07
8.96664e-07
3.06134e-06
8.03235e-06
1.72522e-05
3.20704e-05
5.37335e-05
8.367e-05
0.000124773
0.000180199
0.000252875
0.000346689
0.000465025
0.000610568
0.000785048
0.000998407
0.00124198
0.00150801
0.00179086
0.00208273
0.00236174
0.00262068
0.00284815
0.00301414
0.00314165
0.00322054
0.00323965
0.0032336
0.00318766
0.00311952
0.00303852
0.00293835
0.00283491
0.00272387
0.00261074
0.00249554
0.00237956
0.00226328
0.00214752
0.0020319
0.00191749
0.00180346
0.00169072
0.00157875
0.001468
0.00135847
0.00124993
0.00114311
0.00103686
0.000933314
0.000830688
0.000780447
0.000730205
0.000680585
0.000632086
0.000583588
0.000535734
0.000489212
0.00044269
0.000397378
0.000353098
0.000308916
0.000267233
0.000225549
0.000186312
0.000147524
0.00011182
7.78277e-05
4.66959e-05
3.22852e-05
1.94584e-05
8.21006e-06
0
)


113
(
0
9.73351e-25
2.79871e-23
8.37574e-22
9.93099e-21
9.42649e-20
7.38041e-19
5.5566e-18
3.54434e-17
1.99313e-16
1.1038e-15
5.39426e-15
2.29774e-14
8.5618e-14
2.78521e-13
8.77543e-13
3.09062e-12
9.96991e-12
2.97395e-11
8.14896e-11
2.07232e-10
4.93137e-10
1.10796e-09
2.68089e-09
6.17505e-09
1.35241e-08
2.81817e-08
5.6176e-08
1.07733e-07
1.9978e-07
3.59507e-07
6.29218e-07
1.07387e-06
1.7916e-06
2.92527e-06
4.67921e-06
7.28824e-06
1.10963e-05
1.65836e-05
2.42571e-05
3.47792e-05
4.91168e-05
6.81966e-05
9.30482e-05
0.000124875
0.000164898
0.000214417
0.000274703
0.000347856
0.000434991
0.000536232
0.000651955
0.000781778
0.00092492
0.00108027
0.00124856
0.00142422
0.00160384
0.00178509
0.00196339
0.002133
0.00229307
0.00243985
0.00256224
0.00266837
0.00275361
0.00280747
0.00284572
0.00285614
0.00284457
0.00282024
0.00276746
0.0027078
0.00263092
0.00254585
0.0024527
0.00235221
0.00224887
0.0021405
0.00203146
0.00192035
0.00180922
0.001698
0.00158721
0.00147709
0.00136798
0.00125969
0.00115312
0.00104713
0.00094379
0.000841361
0.000791219
0.000741076
0.000691548
0.000643133
0.000594717
0.000546939
0.000500478
0.000454018
0.000408745
0.000364485
0.000320318
0.000278518
0.000236718
0.000197213
0.000158129
0.000121905
8.70288e-05
5.44812e-05
3.91834e-05
2.50863e-05
1.20819e-05
0
)


113
(
0
5.91972e-11
2.15858e-10
5.94638e-10
1.34717e-09
2.77311e-09
5.38363e-09
9.91547e-09
1.76638e-08
3.02869e-08
5.0365e-08
8.1392e-08
1.28049e-07
1.96568e-07
2.95084e-07
4.39286e-07
6.45652e-07
9.38732e-07
1.34072e-06
1.88059e-06
2.59954e-06
3.54899e-06
4.77625e-06
6.44555e-06
8.58094e-06
1.12963e-05
1.47403e-05
1.89926e-05
2.42561e-05
3.07715e-05
3.8646e-05
4.81696e-05
5.9636e-05
7.31912e-05
8.92803e-05
0.000108138
0.000130209
0.000155676
0.000184621
0.000217947
0.000255151
0.000297307
0.000344138
0.000395959
0.000452587
0.000514709
0.000581477
0.000653034
0.000729885
0.000811274
0.000896657
0.000985512
0.00107717
0.00117108
0.00126679
0.00136329
0.00145939
0.00155435
0.00164764
0.00173734
0.00182249
0.00190339
0.00197883
0.00204518
0.00210552
0.00215817
0.00219887
0.00223327
0.00225607
0.00226839
0.00227464
0.00226449
0.00224946
0.00222186
0.00218637
0.00214312
0.00208924
0.00203124
0.00196174
0.0018903
0.00180924
0.00172641
0.0016377
0.00154686
0.00145261
0.00135654
0.00125899
0.00116028
0.00106117
0.000962293
0.000863866
0.000815192
0.000766517
0.000718206
0.000670552
0.000622897
0.00057562
0.00052912
0.00048262
0.000436884
0.000391797
0.000346803
0.000304153
0.000261502
0.000220564
0.00017994
0.000141347
0.000103859
6.81878e-05
5.10619e-05
3.46675e-05
1.82608e-05
0
)


113
(
0
1.07773e-07
2.5496e-07
4.70796e-07
7.65791e-07
1.16058e-06
1.68026e-06
2.3532e-06
3.21086e-06
4.2875e-06
5.62026e-06
7.24942e-06
9.22604e-06
1.16046e-05
1.44323e-05
1.78041e-05
2.17778e-05
2.6423e-05
3.17842e-05
3.79239e-05
4.49673e-05
5.30311e-05
6.19182e-05
7.23848e-05
8.40293e-05
9.70514e-05
0.000111506
0.000127505
0.00014515
0.0001645
0.000185699
0.000208949
0.000233987
0.00026089
0.000289979
0.000321831
0.000355066
0.000390653
0.000428408
0.000468513
0.000510278
0.000554556
0.000600372
0.000648345
0.000697888
0.000748625
0.000801048
0.000855054
0.00090944
0.000965004
0.00102095
0.00107711
0.00113321
0.00118897
0.00124421
0.00129825
0.00135106
0.00140234
0.00145191
0.00149883
0.00154296
0.00158462
0.00162324
0.00165714
0.00168805
0.00171518
0.00173659
0.00175496
0.00176773
0.00177534
0.00177996
0.00177627
0.00176992
0.00175665
0.00173862
0.00171589
0.00168622
0.00165385
0.00161347
0.00157157
0.00152111
0.00146898
0.00141131
0.00135053
0.00128483
0.00121521
0.00114245
0.00106539
0.000986907
0.000906369
0.000825067
0.000783522
0.000741976
0.00070018
0.000657929
0.000615678
0.000573361
0.000530908
0.000488455
0.000446136
0.000403931
0.000361752
0.000320226
0.000278701
0.000238107
0.000197686
0.000158579
0.000120016
8.20163e-05
6.30421e-05
4.35266e-05
2.29595e-05
0
)


113
(
0
2.01415e-06
4.12897e-06
6.58018e-06
9.42063e-06
1.27129e-05
1.65101e-05
2.08543e-05
2.57809e-05
3.13218e-05
3.7507e-05
4.43664e-05
5.19294e-05
6.02271e-05
6.92891e-05
7.92073e-05
9.00713e-05
0.000101809
0.000114448
0.000128014
0.000142535
0.000158035
0.000174542
0.000192232
0.000211179
0.000231344
0.000252719
0.000275098
0.00029836
0.000322694
0.000348011
0.000373647
0.000401393
0.000429169
0.000458187
0.000488033
0.000518738
0.000549984
0.000582733
0.000615065
0.000648428
0.00068276
0.000716874
0.000751797
0.000786698
0.000821813
0.000856903
0.000892047
0.000926791
0.000961145
0.000995237
0.00102874
0.00106163
0.00109382
0.00112507
0.00115508
0.00118389
0.00121146
0.00123772
0.00126196
0.00128443
0.00130529
0.00132414
0.0013403
0.00135489
0.00136754
0.0013765
0.00138371
0.00138792
0.00138897
0.00138819
0.00138201
0.00137418
0.00136203
0.00134669
0.00132822
0.00130615
0.0012827
0.00125478
0.00122597
0.00119177
0.00115623
0.00111628
0.00107419
0.00102871
0.000980341
0.00092965
0.00087538
0.000819917
0.000760255
0.000699497
0.000667848
0.000636198
0.00060404
0.000570961
0.000537883
0.000504476
0.000470392
0.000436307
0.000401914
0.000367259
0.000332595
0.000297716
0.000262838
0.000227855
0.00019285
0.000157448
0.000121508
8.44013e-05
6.52268e-05
4.49019e-05
2.33985e-05
0
)


113
(
0
7.6125e-06
1.48881e-05
2.23213e-05
3.01071e-05
3.83688e-05
4.71878e-05
5.66095e-05
6.66547e-05
7.7329e-05
8.86301e-05
0.000100553
0.00011309
0.000126235
0.000139982
0.000154366
0.000169412
0.000185037
0.000201231
0.000217985
0.00023529
0.000253135
0.000271509
0.000290471
0.00030992
0.000329838
0.000350205
0.000371
0.000392201
0.000413783
0.000435717
0.000457977
0.00048053
0.000503474
0.000529074
0.000552386
0.000575844
0.000599409
0.00062304
0.000646698
0.000670342
0.000693926
0.000717408
0.00074152
0.00077042
0.000796396
0.000820577
0.000844241
0.000866963
0.000888733
0.000909063
0.000928347
0.00094642
0.000963153
0.000978648
0.000992059
0.00100328
0.00100825
0.00100848
0.00101963
0.00102948
0.00103826
0.00104577
0.00105147
0.00105605
0.00105924
0.00106085
0.00106127
0.00105913
0.00105524
0.00105033
0.00104256
0.00103389
0.00102286
0.00101016
0.000995807
0.000978947
0.000961117
0.000940015
0.000918306
0.000893194
0.000867223
0.000838396
0.000808146
0.000775634
0.000741136
0.000705042
0.000666402
0.000626913
0.000584337
0.000540922
0.00051824
0.000495559
0.000472456
0.000448593
0.000424729
0.000400538
0.00037567
0.000350802
0.000325445
0.00029967
0.00027386
0.000247137
0.000220414
0.000192698
0.000164798
0.000135391
0.000105006
7.29283e-05
5.61738e-05
3.84056e-05
1.97901e-05
0
)


113
(
0
1.38227e-05
2.67349e-05
3.91975e-05
5.15127e-05
6.38387e-05
7.62884e-05
8.89386e-05
0.000101837
0.000115008
0.000128464
0.000142208
0.000156235
0.000170541
0.000185115
0.000199966
0.000215092
0.000230445
0.000246012
0.000261779
0.00027773
0.000293852
0.00031013
0.00032486
0.000340877
0.000357146
0.000373452
0.000389774
0.000406092
0.000422384
0.000438627
0.000454798
0.000470875
0.000486832
0.000502648
0.000518291
0.000533742
0.000548977
0.000563972
0.000578701
0.000593141
0.000607254
0.00062102
0.000634416
0.000647419
0.000660003
0.000672144
0.000683818
0.000694964
0.000705559
0.000715601
0.000725063
0.00073393
0.000742189
0.000749833
0.000756653
0.000762748
0.000768163
0.000772908
0.000776712
0.000779648
0.00078188
0.000783286
0.000783525
0.00078306
0.000781716
0.000779095
0.000775816
0.000771339
0.000765778
0.000759587
0.000751647
0.000743158
0.000733244
0.000722322
0.000710409
0.000697001
0.000683013
0.000668984
0.000654591
0.000635838
0.0006166
0.000595749
0.000574091
0.00055115
0.000527072
0.00050208
0.000475594
0.000448612
0.000419727
0.000390276
0.000374893
0.00035951
0.000343796
0.000327485
0.000311174
0.000294548
0.000277272
0.000259997
0.000242151
0.000223821
0.000205445
0.000185916
0.000166388
0.000145691
0.000124779
0.000102358
7.91205e-05
5.45664e-05
4.1785e-05
2.8374e-05
1.44899e-05
0
)


113
(
0
1.60994e-05
3.1222e-05
4.55825e-05
5.9418e-05
7.28336e-05
8.59149e-05
9.87354e-05
0.000111353
0.000123813
0.000136145
0.000148374
0.000160515
0.000172579
0.000184574
0.000196498
0.000208349
0.000220132
0.000231845
0.000243483
0.000255039
0.000266507
0.000277878
0.000289127
0.00030026
0.000311267
0.000322138
0.000332863
0.00034343
0.00035383
0.000364049
0.000374077
0.000383902
0.000393513
0.000402897
0.000412037
0.000420928
0.00042956
0.000437922
0.000446002
0.000453791
0.000461267
0.000468424
0.000475255
0.00048175
0.0004879
0.000493695
0.000499127
0.000504158
0.000508783
0.00051301
0.000516829
0.000520236
0.000523231
0.000525815
0.00052786
0.00052944
0.000530591
0.000531322
0.000531474
0.000531102
0.00053031
0.000529027
0.000527064
0.000524697
0.000521826
0.000518235
0.000514278
0.000509657
0.000504443
0.000498885
0.000492386
0.000485594
0.000478044
0.000469964
0.000461363
0.000451979
0.000442294
0.000431595
0.000420709
0.00040877
0.000396562
0.000383459
0.000369899
0.000355609
0.000340647
0.000325143
0.000308701
0.000291946
0.000273899
0.000255436
0.000245717
0.000235999
0.000226017
0.000215559
0.000205101
0.000194382
0.000183121
0.00017186
0.000160129
0.000147996
0.000135828
0.000122759
0.00010969
9.57903e-05
8.17379e-05
6.67232e-05
5.12416e-05
3.50369e-05
2.66742e-05
1.80106e-05
9.13489e-06
0
)


113
(
0
1.19843e-05
2.34149e-05
3.43269e-05
4.48164e-05
5.49095e-05
6.46309e-05
7.40091e-05
8.30718e-05
9.18449e-05
0.00010035
0.000108606
0.000116629
0.00012443
0.000132021
0.000139397
0.000146557
0.00015353
0.000160324
0.000166941
0.000173385
0.000179658
0.000185762
0.000191673
0.00019742
0.000203004
0.000208424
0.00021368
0.000218771
0.000223698
0.000228458
0.000233052
0.000237477
0.000241733
0.000245817
0.000249724
0.000253457
0.000257016
0.000260399
0.000263603
0.000266628
0.000269465
0.000272117
0.000274582
0.00027686
0.000278949
0.000280847
0.000282554
0.000284053
0.000285346
0.00028644
0.000287332
0.000288024
0.000288517
0.000288814
0.000288858
0.000288686
0.000288317
0.000287756
0.000286934
0.000285876
0.000284631
0.000283168
0.000281405
0.000279465
0.000277305
0.00027483
0.000272195
0.00026927
0.000266086
0.000262751
0.000259002
0.000255123
0.000250907
0.000246451
0.000241759
0.000236707
0.000231516
0.000225844
0.000220083
0.000213807
0.000207395
0.00020053
0.000193423
0.000185934
0.000178078
0.000169926
0.000161247
0.000152393
0.0001428
0.000132969
0.000127775
0.000122581
0.00011724
0.000111633
0.000106026
0.000100279
9.42439e-05
8.82086e-05
8.19383e-05
7.5468e-05
6.89813e-05
6.20812e-05
5.51811e-05
4.79323e-05
4.062e-05
3.29395e-05
2.50947e-05
1.70025e-05
1.28715e-05
8.64748e-06
4.36082e-06
0
)


113
(
0
1.27698e-06
2.52341e-06
3.73805e-06
4.92431e-06
6.08163e-06
7.20954e-06
8.30808e-06
9.3776e-06
1.04186e-05
1.14317e-05
1.24172e-05
1.33758e-05
1.43077e-05
1.52132e-05
1.60907e-05
1.6939e-05
1.77616e-05
1.85586e-05
1.93303e-05
2.00767e-05
2.07979e-05
2.14938e-05
2.2161e-05
2.28034e-05
2.34213e-05
2.40146e-05
2.45833e-05
2.51277e-05
2.56476e-05
2.61431e-05
2.66144e-05
2.70614e-05
2.74842e-05
2.78828e-05
2.82568e-05
2.86068e-05
2.89331e-05
2.92357e-05
2.95147e-05
2.97702e-05
3.00014e-05
3.02089e-05
3.03928e-05
3.05534e-05
3.06907e-05
3.08048e-05
3.08959e-05
3.09621e-05
3.10041e-05
3.10228e-05
3.10183e-05
3.09908e-05
3.09409e-05
3.08689e-05
3.07687e-05
3.06448e-05
3.04992e-05
3.03328e-05
3.01381e-05
2.99184e-05
2.96787e-05
2.94161e-05
2.9122e-05
2.88096e-05
2.84743e-05
2.81068e-05
2.77231e-05
2.731e-05
2.68709e-05
2.64169e-05
2.59219e-05
2.54143e-05
2.48739e-05
2.43107e-05
2.3725e-05
2.31057e-05
2.24734e-05
2.17976e-05
2.11136e-05
2.03844e-05
1.96436e-05
1.88644e-05
1.80657e-05
1.7236e-05
1.63781e-05
1.54976e-05
1.45791e-05
1.36479e-05
1.26673e-05
1.16718e-05
1.11569e-05
1.0642e-05
1.01187e-05
9.58041e-06
9.04207e-06
8.49653e-06
7.93607e-06
7.37562e-06
6.80414e-06
6.22326e-06
5.64168e-06
5.04243e-06
4.44318e-06
3.83029e-06
3.21493e-06
2.58629e-06
1.95211e-06
1.30979e-06
9.85922e-07
6.59227e-07
3.30683e-07
0
)

)


10
(

113
(
0
9.85222e-29
2.33385e-28
3.88921e-28
5.65071e-28
7.69699e-28
1.01992e-27
1.35604e-27
1.87649e-27
2.75939e-27
4.53035e-27
8.415e-27
1.7375e-26
3.82462e-26
9.47077e-26
3.13333e-25
1.1885e-24
4.68e-24
1.55583e-23
6.31417e-23
3.55969e-22
2.147e-21
1.344e-20
7.38231e-20
2.79438e-19
2.2425e-18
1.80625e-17
1.39358e-16
9.705e-16
5.29167e-15
2.82083e-14
2.53455e-13
2.04767e-12
1.491e-11
1.02573e-10
6.89091e-10
4.1e-09
2.09727e-08
9.07e-08
4.56427e-07
1.86509e-06
6.538e-06
1.779e-05
4.211e-05
8.53273e-05
0.000153545
0.000254455
0.000388
0.000549667
0.000748
0.000964923
0.0012225
0.00149462
0.00176
0.00201
0.00224286
0.00245429
0.00264
0.00276
0.00284812
0.00290437
0.00291562
0.00291063
0.00287937
0.00282882
0.00277
0.00269778
0.00262333
0.00254
0.00245444
0.00236556
0.00227632
0.00218684
0.00209368
0.00199895
0.001912
0.001827
0.001738
0.001648
0.001562
0.001477
0.001388
0.001298
0.00121263
0.00112842
0.0010462
0.0009642
0.0008795
0.000795056
0.000715611
0.000636882
0.000598353
0.000559824
0.000521625
0.00048475
0.000447875
0.000411
0.000377
0.000343
0.000309
0.000273167
0.000237333
0.000204182
0.000172818
0.000142222
0.000112778
8.45e-05
5.82e-05
3.67e-05
2.65125e-05
1.555e-05
6.7025e-06
0
)


113
(
0
1.22579e-23
4.33019e-22
7.17256e-21
7.69766e-20
6.10704e-19
5.32009e-18
3.92812e-17
2.44188e-16
1.50162e-15
7.9732e-15
3.70895e-14
1.43246e-13
4.79161e-13
1.68225e-12
5.92718e-12
2.0094e-11
6.23684e-11
1.55185e-10
4.05886e-10
1.15439e-09
2.84378e-09
6.64968e-09
1.46985e-08
3.05626e-08
6.68544e-08
1.37819e-07
2.7031e-07
5.05963e-07
9.05155e-07
1.6102e-06
2.83026e-06
4.86786e-06
8.02533e-06
1.27122e-05
1.96994e-05
2.97432e-05
4.38576e-05
6.31822e-05
8.9952e-05
0.000125007
0.000169604
0.000226069
0.000294578
0.000377581
0.00047466
0.000586125
0.000711855
0.000849855
0.000999128
0.00115955
0.00132442
0.00149163
0.00165817
0.00182028
0.00197222
0.00211394
0.00224414
0.00234971
0.00244033
0.00251599
0.00256302
0.00259775
0.00261125
0.00260534
0.00259112
0.00255272
0.00251056
0.00245333
0.00239083
0.00232043
0.00224486
0.00216585
0.0020833
0.00199924
0.00191322
0.00182671
0.00173961
0.00165237
0.00156534
0.00147835
0.00139201
0.00130584
0.00122057
0.00113553
0.0010518
0.000968223
0.000886275
0.000804729
0.000725167
0.000646391
0.000607919
0.000569447
0.000531263
0.000494231
0.000457199
0.000420168
0.000384721
0.000349275
0.000313828
0.000280083
0.000246338
0.000213766
0.000181977
0.000151097
0.000121582
9.35063e-05
6.68046e-05
4.1762e-05
3.04637e-05
1.95202e-05
9.60613e-06
0
)


113
(
0
2.26986e-10
8.20952e-10
2.16014e-09
4.77017e-09
9.67084e-09
1.86742e-08
3.41272e-08
5.98865e-08
1.01417e-07
1.66181e-07
2.6488e-07
4.08959e-07
6.15906e-07
9.19925e-07
1.35614e-06
1.95839e-06
2.77805e-06
3.83673e-06
5.3081e-06
7.29799e-06
9.79248e-06
1.30052e-05
1.70684e-05
2.20125e-05
2.85326e-05
3.64903e-05
4.60571e-05
5.75123e-05
7.11756e-05
8.74855e-05
0.000106875
0.00012949
0.000155486