/*--------------------------------*- C++ -*----------------------------------*\
| =========                 |                                                 |
| \\      /  F ield         | OpenFOAM: The Open Source CFD Toolbox           |
|  \\    /   O peration     | Version:  2.3.0                                 |
|   \\  /    A nd           | Web:      www.OpenFOAM.org                      |
|    \\/     M anipulation  |                                                 |
\*---------------------------------------------------------------------------*/
FoamFile
{
    version     2.0;
    format      ascii;
    class       dictionary;
    location    "constant";
    object      C2H5;
}
// * * * * * * * * * * * * * * * * * * * * * * * * * * * * * * * * * * * * * //

C2H5_table
13
(

10
(

113
(
0
9.20833e-31
1.35614e-30
1.6135e-30
1.71491e-30
1.67024e-30
1.47183e-30
1.17066e-30
8.432e-31
5.06334e-31
2.11102e-31
6.29641e-32
3.04e-32
1.30352e-32
2.09634e-33
4.04473e-34
3.36899e-35
8.59055e-38
2.1182e-37
3.22307e-36
8.79301e-36
2.0617e-34
4.0324e-33
1.81262e-32
8.27862e-31
4.87913e-30
1.45836e-28
7.60671e-27
2.56011e-26
1.95665e-24
6.67471e-23
3.6621e-22
2.03241e-20
1.18587e-19
3.43796e-18
2.81474e-16
9.23671e-16
1.32813e-13
4.32232e-12
1.94198e-11
3.10604e-10
1.06686e-09
4.324e-09
1.05863e-08
1.9736e-08
3.27075e-08
4.66821e-08
6.28832e-08
7.96254e-08
9.75173e-08
1.15797e-07
1.34513e-07
1.53563e-07
1.72833e-07
1.92807e-07
2.13112e-07
2.35871e-07
2.59634e-07
2.89e-07
3.20884e-07
3.61638e-07
4.07829e-07
4.67178e-07
5.38673e-07
6.25046e-07
7.35694e-07
8.57119e-07
1.01675e-06
1.17855e-06
1.39218e-06
1.60582e-06
1.81104e-06
2.01466e-06
2.13541e-06
2.20748e-06
2.18777e-06
2.03598e-06
1.86412e-06
1.5942e-06
1.32429e-06
1.0731e-06
8.23762e-07
6.17894e-07
4.36478e-07
2.86511e-07
1.87857e-07
9.86468e-08
6.29587e-08
2.72706e-08
1.6254e-08
6.00043e-09
3.96929e-09
2.91571e-09
1.86214e-09
8.08571e-10
5.08667e-10
3.52319e-10
1.95971e-10
7.71266e-11
5.47215e-11
3.23165e-11
1.21442e-11
8.34567e-12
4.54716e-12
2.04478e-12
1.192e-12
5.03852e-13
2.39037e-13
8.14679e-14
3.27817e-14
1.25531e-14
1.7871e-15
0
)


113
(
0
1.49602e-27
4.77522e-26
1.27159e-24
1.71769e-23
1.66457e-22
9.00872e-22
7.70953e-21
6.55806e-20
2.50301e-19
1.50329e-18
7.91498e-18
1.83799e-17
1.00545e-16
4.27244e-16
1.10584e-15
4.34213e-15
1.12628e-14
3.305e-14
9.71458e-14
1.9876e-13
6.3346e-13
1.42117e-12
3.10827e-12
7.08553e-12
1.25541e-11
2.7973e-11
5.41052e-11
9.56541e-11
1.83521e-10
3.07524e-10
5.23912e-10
8.80727e-10
1.33504e-09
2.16748e-09
3.26287e-09
4.70682e-09
6.91454e-09
9.58651e-09
1.31492e-08
1.77721e-08
2.30919e-08
3.00286e-08
3.80467e-08
4.71036e-08
5.8138e-08
6.98276e-08
8.37709e-08
9.86037e-08
1.15327e-07
1.33595e-07
1.53605e-07
1.76155e-07
2.00397e-07
2.28744e-07
2.59023e-07
2.95538e-07
3.34601e-07
3.82229e-07
4.33706e-07
4.95286e-07
5.63059e-07
6.40353e-07
7.26435e-07
8.18703e-07
9.21064e-07
1.02493e-06
1.13411e-06
1.24284e-06
1.34059e-06
1.43833e-06
1.5065e-06
1.56904e-06
1.59541e-06
1.60054e-06
1.57833e-06
1.51678e-06
1.44559e-06
1.32735e-06
1.20911e-06
1.06472e-06
9.17744e-07
7.7365e-07
6.31179e-07
5.00218e-07
3.88037e-07
2.81766e-07
2.08991e-07
1.36216e-07
9.57806e-08
5.63454e-08
4.48623e-08
3.59796e-08
2.70969e-08
1.82142e-08
1.39376e-08
1.05382e-08
7.13885e-09
4.37639e-09
3.25167e-09
2.12694e-09
1.09752e-09
7.67044e-10
4.36563e-10
2.11305e-10
1.19966e-10
4.69608e-11
2.10968e-11
6.93888e-12
3.07413e-12
1.49755e-12
4.73168e-13
0
)


113
(
0
3.57013e-14
1.27068e-13
3.38889e-13
7.54824e-13
1.49814e-12
2.80445e-12
5.19329e-12
9.07499e-12
1.45123e-11
2.39494e-11
3.83308e-11
5.65969e-11
8.88785e-11
1.30735e-10
1.86369e-10
2.72657e-10
3.76321e-10
5.27399e-10
7.25138e-10
9.64255e-10
1.31468e-09
1.72115e-09
2.25197e-09
2.94267e-09
3.72937e-09
4.81278e-09
6.05505e-09
7.52596e-09
9.4193e-09
1.1551e-08
1.41822e-08
1.72864e-08
2.0713e-08
2.51104e-08
2.99754e-08
3.54601e-08
4.21732e-08
4.94925e-08
5.78642e-08
6.76751e-08
7.83735e-08
9.084e-08
1.04599e-07
1.196e-07
1.37297e-07
1.55855e-07
1.77238e-07
2.00054e-07
2.25913e-07
2.5362e-07
2.83412e-07
3.16299e-07
3.5125e-07
3.89112e-07
4.28344e-07
4.70855e-07
5.14706e-07
5.60727e-07
6.07721e-07
6.55801e-07
7.04545e-07
7.52787e-07
8.00565e-07
8.46805e-07
8.90536e-07
9.3249e-07
9.68147e-07
1.00333e-06
1.02703e-06
1.05074e-06
1.06118e-06
1.06908e-06
1.06576e-06
1.05584e-06
1.03826e-06
1.00966e-06
9.78196e-07
9.32728e-07
8.8726e-07
8.29405e-07
7.70326e-07
7.06615e-07
6.40301e-07
5.73481e-07
5.05837e-07
4.38949e-07
3.76345e-07
3.13741e-07
2.61418e-07
2.09412e-07
1.87573e-07
1.67047e-07
1.46522e-07
1.25997e-07
1.10016e-07
9.49007e-08
7.97852e-08
6.60234e-08
5.57426e-08
4.54619e-08
3.56068e-08
2.88738e-08
2.21407e-08
1.64501e-08
1.20864e-08
8.14099e-09
5.27123e-09
2.99312e-09
2.02618e-09
1.28611e-09
6.19666e-10
0
)


113
(
0
3.25412e-11
7.65063e-11
1.40133e-10
2.26881e-10
3.40861e-10
4.90178e-10
6.90961e-10
9.39237e-10
1.23289e-09
1.62493e-09
2.09484e-09
2.62593e-09
3.34253e-09
4.14891e-09
5.0845e-09
6.25163e-09
7.53472e-09
9.1014e-09
1.08842e-08
1.28585e-08
1.53232e-08
1.79597e-08
2.09302e-08
2.44476e-08
2.82866e-08
3.28171e-08
3.76591e-08
4.29491e-08
4.90409e-08
5.55933e-08
6.31241e-08
7.1226e-08
7.97224e-08
8.96595e-08
1.00166e-07
1.11426e-07
1.23845e-07
1.36937e-07
1.51292e-07
1.66334e-07
1.82003e-07
2.00008e-07
2.18087e-07
2.3624e-07
2.56781e-07
2.77836e-07
2.99368e-07
3.21808e-07
3.46179e-07
3.70351e-07
3.94298e-07
4.1912e-07
4.44526e-07
4.70336e-07
4.96335e-07
5.21388e-07
5.46056e-07
5.70573e-07
5.95021e-07
6.17922e-07
6.39874e-07
6.60366e-07
6.79512e-07
6.97092e-07
7.12118e-07
7.26032e-07
7.36006e-07
7.45746e-07
7.49879e-07
7.54012e-07
7.52568e-07
7.50062e-07
7.43394e-07
7.34281e-07
7.22176e-07
7.05764e-07
6.88263e-07
6.65451e-07
6.42638e-07
6.13605e-07
5.83957e-07
5.52645e-07
5.20396e-07
4.86054e-07
4.48296e-07
4.10558e-07
3.72938e-07
3.35318e-07
2.98293e-07
2.61286e-07
2.43612e-07
2.262e-07
2.08788e-07
1.91376e-07
1.75331e-07
1.59546e-07
1.43762e-07
1.28509e-07
1.14623e-07
1.00737e-07
8.70843e-08
7.51384e-08
6.31925e-08
5.20372e-08
4.1888e-08
3.21486e-08
2.34627e-08
1.53858e-08
1.15165e-08
7.7887e-09
4.01096e-09
0
)


113
(
0
6.28943e-10
1.2956e-09
2.07154e-09
2.97737e-09
4.02656e-09
5.24588e-09
6.6808e-09
8.29124e-09
1.00623e-08
1.21417e-08
1.44334e-08
1.68918e-08
1.97779e-08
2.28587e-08
2.62198e-08
2.99991e-08
3.39796e-08
3.84325e-08
4.32081e-08
4.82699e-08
5.39132e-08
5.97973e-08
6.61825e-08
7.2994e-08
8.00621e-08
8.79588e-08
9.61448e-08
1.04747e-07
1.13894e-07
1.23304e-07
1.33193e-07
1.43863e-07
1.55033e-07
1.66264e-07
1.77739e-07
1.89536e-07
2.02429e-07
2.15538e-07
2.28709e-07
2.42066e-07
2.5565e-07
2.70281e-07
2.85011e-07
2.99836e-07
3.13522e-07
3.27264e-07
3.43222e-07
3.58759e-07
3.73404e-07
3.87731e-07
4.01701e-07
4.15731e-07
4.29801e-07
4.42744e-07
4.55157e-07
4.67599e-07
4.80052e-07
4.91202e-07
5.01766e-07
5.11332e-07
5.20286e-07
5.28103e-07
5.34871e-07
5.40706e-07
5.45019e-07
5.48847e-07
5.50956e-07
5.52929e-07
5.51651e-07
5.50373e-07
5.46296e-07
5.41686e-07
5.35585e-07
5.28609e-07
5.19318e-07
5.06695e-07
4.93843e-07
4.79871e-07
4.65899e-07
4.49238e-07
4.32311e-07
4.13697e-07
3.94134e-07
3.73738e-07
3.51982e-07
3.2998e-07
3.06576e-07
2.83173e-07
2.58767e-07
2.34331e-07
2.21964e-07
2.09551e-07
1.97138e-07
1.84725e-07
1.7241e-07
1.60114e-07
1.47818e-07
1.35629e-07
1.23717e-07
1.11805e-07
9.99589e-08
8.85951e-08
7.72313e-08
6.60957e-08
5.52506e-08
4.44754e-08
3.38798e-08
2.31723e-08
1.7769e-08
1.21277e-08
6.27112e-09
0
)


113
(
0
2.71534e-09
5.3321e-09
8.01669e-09
1.08427e-08
1.38452e-08
1.70658e-08
2.05593e-08
2.42651e-08
2.81615e-08
3.24006e-08
3.68553e-08
4.14795e-08
4.64991e-08
5.16825e-08
5.71016e-08
6.28413e-08
6.87286e-08
7.49463e-08
8.13701e-08
8.79768e-08
9.49231e-08
1.02001e-07
1.09346e-07
1.1691e-07
1.24603e-07
1.32609e-07
1.40735e-07
1.49034e-07
1.57545e-07
1.66157e-07
1.74953e-07
1.83871e-07
1.92876e-07
2.02404e-07
2.11832e-07
2.2113e-07
2.30492e-07
2.39875e-07
2.4928e-07
2.58675e-07
2.68058e-07
2.77385e-07
2.87418e-07
2.9813e-07
3.09099e-07
3.19723e-07
3.27166e-07
3.35198e-07
3.4448e-07
3.52656e-07
3.59584e-07
3.66235e-07
3.727e-07
3.78228e-07
3.83316e-07
3.84724e-07
3.84631e-07
3.8736e-07
3.91357e-07
3.94652e-07
3.97516e-07
3.99729e-07
4.0134e-07
4.02431e-07
4.02677e-07
4.02777e-07
4.02366e-07
4.01856e-07
3.99003e-07
3.96149e-07
3.91959e-07
3.87515e-07
3.8204e-07
3.75959e-07
3.69197e-07
3.61455e-07
3.5343e-07
3.44024e-07
3.34617e-07
3.23726e-07
3.12688e-07
3.00656e-07
2.88065e-07
2.74933e-07
2.60919e-07
2.4672e-07
2.31468e-07
2.16216e-07
1.99994e-07
1.83743e-07
1.75343e-07
1.66857e-07
1.5837e-07
1.49883e-07
1.41205e-07
1.32491e-07
1.23776e-07
1.15022e-07
1.06164e-07
9.73069e-08
8.84316e-08
7.94236e-08
7.04157e-08
6.12871e-08
5.20049e-08
4.25888e-08
3.28284e-08
2.26346e-08
1.73981e-08
1.18415e-08
6.08469e-09
0
)


113
(
0
5.21943e-09
1.01142e-08
1.48448e-08
1.95258e-08
2.42137e-08
2.8952e-08
3.3788e-08
3.87121e-08
4.37179e-08
4.88795e-08
5.41402e-08
5.94787e-08
6.49939e-08
7.05786e-08
7.6263e-08
8.20734e-08
8.79395e-08
9.39238e-08
9.99743e-08
1.06084e-07
1.12289e-07
1.18228e-07
1.2338e-07
1.29183e-07
1.35353e-07
1.4154e-07
1.47724e-07
1.53905e-07
1.60062e-07
1.66202e-07
1.723e-07
1.78349e-07
1.84367e-07
1.90284e-07
1.96146e-07
2.01935e-07
2.07595e-07
2.13184e-07
2.18643e-07
2.23962e-07
2.2919e-07
2.34215e-07
2.39104e-07
2.43862e-07
2.48363e-07
2.52776e-07
2.56879e-07
2.60855e-07
2.64563e-07
2.68064e-07
2.71333e-07
2.74312e-07
2.77098e-07
2.79521e-07
2.81773e-07
2.83611e-07
2.85279e-07
2.86508e-07
2.87539e-07
2.88145e-07
2.8849e-07
2.88453e-07
2.88065e-07
2.8738e-07
2.86214e-07
2.84868e-07
2.82887e-07
2.80871e-07
2.78041e-07
2.75211e-07
2.71645e-07
2.6794e-07
2.63672e-07
2.59073e-07
2.54102e-07
2.48598e-07
2.43103e-07
2.37656e-07
2.32209e-07
2.2489e-07
2.17386e-07
2.09344e-07
2.01001e-07
1.92354e-07
1.83213e-07
1.7396e-07
1.64076e-07
1.54192e-07
1.43647e-07
1.33082e-07
1.27559e-07
1.21961e-07
1.16362e-07
1.10763e-07
1.04904e-07
9.89938e-08
9.30841e-08
8.70791e-08
8.08294e-08
7.45796e-08
6.82809e-08
6.16234e-08
5.4966e-08
4.80896e-08
4.09346e-08
3.36199e-08
2.5895e-08
1.77905e-08
1.36209e-08
9.22486e-09
4.70598e-09
0
)


113
(
0
6.01015e-09
1.16613e-08
1.70253e-08
2.21889e-08
2.71969e-08
3.20717e-08
3.68339e-08
4.15303e-08
4.61735e-08
5.07443e-08
5.52801e-08
5.97884e-08
6.42436e-08
6.86787e-08
7.30849e-08
7.74519e-08
8.18001e-08
8.61047e-08
9.03785e-08
9.46249e-08
9.88122e-08
1.02974e-07
1.0708e-07
1.11133e-07
1.15155e-07
1.19085e-07
1.22972e-07
1.26799e-07
1.30535e-07
1.34222e-07
1.37812e-07
1.41319e-07
1.44771e-07
1.48082e-07
1.51326e-07
1.54482e-07
1.57498e-07
1.60442e-07
1.63259e-07
1.65949e-07
1.68558e-07
1.70995e-07
1.73324e-07
1.75549e-07
1.7758e-07
1.79547e-07
1.81292e-07
1.82951e-07
1.84425e-07
1.85765e-07
1.86953e-07
1.87957e-07
1.8884e-07
1.89502e-07
1.9006e-07
1.90374e-07
1.90587e-07
1.9055e-07
1.90399e-07
1.90011e-07
1.89478e-07
1.88737e-07
1.87804e-07
1.86715e-07
1.85368e-07
1.83928e-07
1.82156e-07
1.80366e-07
1.78157e-07
1.75949e-07
1.73367e-07
1.70714e-07
1.67779e-07
1.64676e-07
1.61388e-07
1.57831e-07
1.54196e-07
1.5018e-07
1.46163e-07
1.41725e-07
1.37244e-07
1.32465e-07
1.27517e-07
1.22389e-07
1.16969e-07
1.11476e-07
1.05573e-07
9.96697e-08
9.32775e-08
8.68702e-08
8.34618e-08
7.99887e-08
7.65156e-08
7.30426e-08
6.93221e-08
6.55544e-08
6.17868e-08
5.79275e-08
5.38327e-08
4.97379e-08
4.55998e-08
4.11442e-08
3.66885e-08
3.20652e-08
2.72283e-08
2.22871e-08
1.70777e-08
1.16533e-08
8.8757e-09
5.98347e-09
3.03378e-09
0
)


113
(
0
4.31354e-09
8.4278e-09
1.23525e-08
1.61207e-08
1.97481e-08
2.32353e-08
2.6578e-08
2.98215e-08
3.29794e-08
3.59991e-08
3.89403e-08
4.18199e-08
4.45671e-08
4.72632e-08
4.98856e-08
5.24131e-08
5.48975e-08
5.72874e-08
5.96195e-08
6.19003e-08
6.40859e-08
6.62341e-08
6.83061e-08
7.03136e-08
7.22828e-08
7.41544e-08
7.59854e-08
7.77582e-08
7.94523e-08
8.11061e-08
8.26823e-08
8.4198e-08
8.56732e-08
8.70507e-08
8.83852e-08
8.96624e-08
9.08536e-08
9.2002e-08
9.30755e-08
9.40776e-08
9.50348e-08
9.58987e-08
9.6706e-08
9.7459e-08
9.81138e-08
9.87364e-08
9.92498e-08
9.97219e-08
1.00106e-07
1.00428e-07
1.00678e-07
1.00845e-07
1.00957e-07
1.0097e-07
1.00937e-07
1.00796e-07
1.00612e-07
1.0032e-07
9.99789e-08
9.95367e-08
9.90325e-08
9.84406e-08
9.77678e-08
9.70288e-08
9.61818e-08
9.52953e-08
9.42689e-08
9.32351e-08
9.20236e-08
9.08122e-08
8.94402e-08
8.80377e-08
8.65107e-08
8.49106e-08
8.3226e-08
8.14199e-08
7.9577e-08
7.75541e-08
7.55313e-08
7.32994e-08
7.10468e-08
6.86377e-08
6.61405e-08
6.35439e-08
6.07851e-08
5.79841e-08
5.49438e-08
5.19036e-08
4.85694e-08
4.52261e-08
4.34314e-08
4.15977e-08
3.9764e-08
3.79304e-08
3.59535e-08
3.39494e-08
3.19452e-08
2.9892e-08
2.77124e-08
2.55329e-08
2.33324e-08
2.09786e-08
1.86247e-08
1.61988e-08
1.36812e-08
1.11237e-08
8.46354e-09
5.7289e-09
4.3392e-09
2.91273e-09
1.46881e-09
0
)


113
(
0
4.36145e-10
8.61966e-10
1.27695e-09
1.6821e-09
2.07772e-09
2.4631e-09
2.83687e-09
3.20203e-09
3.55958e-09
3.90385e-09
4.23994e-09
4.56962e-09
4.88452e-09
5.19335e-09
5.49345e-09
5.78172e-09
6.06453e-09
6.3351e-09
6.59796e-09
6.85397e-09
7.09702e-09
7.33495e-09
7.56237e-09
7.78085e-09
7.99403e-09
8.19369e-09
8.38776e-09
8.57379e-09
8.74906e-09
8.91886e-09
9.07815e-09
9.22939e-09
9.37521e-09
9.50821e-09
9.63563e-09
9.75566e-09
9.86475e-09
9.96845e-09
1.00628e-08
1.01483e-08
1.02284e-08
1.02972e-08
1.03593e-08
1.04149e-08
1.04591e-08
1.04995e-08
1.05274e-08
1.05506e-08
1.05638e-08
1.05701e-08
1.05685e-08
1.05577e-08
1.05409e-08
1.05134e-08
1.0481e-08
1.0437e-08
1.03885e-08
1.03284e-08
1.02633e-08
1.01876e-08
1.01054e-08
1.00142e-08
9.91468e-09
9.80838e-09
9.69105e-09
9.56974e-09
9.4343e-09
9.29812e-09
9.14422e-09
8.99031e-09
8.8206e-09
8.64788e-09
8.46311e-09
8.27124e-09
8.07137e-09
7.85996e-09
7.64515e-09
7.41371e-09
7.18227e-09
6.93218e-09
6.68023e-09
6.41492e-09
6.1421e-09
5.86125e-09
5.56733e-09
5.27023e-09
4.95516e-09
4.64009e-09
4.30474e-09
3.96876e-09
3.79307e-09
3.61496e-09
3.43684e-09
3.25873e-09
3.07259e-09
2.88493e-09
2.69727e-09
2.50716e-09
2.31076e-09
2.11435e-09
1.91702e-09
1.71288e-09
1.50873e-09
1.30173e-09
1.09107e-09
8.7897e-10
6.6316e-10
4.4486e-10
3.34967e-10
2.23913e-10
1.12328e-10
0
)

)


10
(

113
(
0
5.29763e-30
7.66243e-30
9.59271e-30
1.13158e-29
1.27194e-29
1.34977e-29
1.31798e-29
1.13496e-29
8.20234e-30
4.7886e-30
2.17567e-30
7.23463e-31
1.67787e-31
2.71494e-32
4.36262e-33
7.25173e-34
2.69786e-34
1.32931e-33
8.63666e-33
6.14548e-32
4.33815e-31
2.183e-30
2.58077e-29
3.34829e-28
4.65429e-27
6.75187e-26
9.97078e-25
1.46268e-23
2.07762e-22
2.78434e-21
3.45405e-20
3.98559e-19
4.42158e-18
4.88677e-17
8.75171e-16
2.42191e-14
6.25026e-13
1.18207e-11
1.48806e-10
1.21889e-09
7.00644e-09
2.66767e-08
7.20862e-08
1.50152e-07
2.5837e-07
3.87581e-07
5.29812e-07
6.8438e-07
8.5758e-07
1.05769e-06
1.29408e-06
1.57386e-06
1.90138e-06
2.27823e-06
2.71505e-06
3.18729e-06
3.67229e-06
4.1521e-06
4.57706e-06
4.88717e-06
5.07983e-06
5.11465e-06
4.91392e-06
4.59833e-06
4.14934e-06
3.61815e-06
3.07734e-06
2.55317e-06
2.08883e-06
1.65917e-06
1.3367e-06
1.04218e-06
8.18369e-07
6.29954e-07
4.7637e-07
3.59733e-07
2.57393e-07
1.90193e-07
1.2863e-07
9.28403e-08
6.10617e-08
4.26362e-08
2.78069e-08
1.86977e-08
1.21555e-08
7.67973e-09
4.94086e-09
2.78094e-09
1.79181e-09
9.80087e-10
7.74453e-10
5.68818e-10
4.0644e-10
3.22311e-10
2.38183e-10
1.69728e-10
1.33679e-10
9.76296e-11
7.187e-11
5.48756e-11
3.81865e-11
2.92273e-11
2.0268e-11
1.44382e-11
9.1674e-12
5.79226e-12
3.03689e-12
1.18003e-12
5.39805e-13
1.97169e-13
2.84035e-14
0
)


113
(
0
6.83262e-27
1.94939e-25
5.83354e-24
7.14023e-23
7.21434e-22
5.58184e-21
4.22083e-20
2.708e-19
1.53145e-18
8.63838e-18
4.2533e-17
1.81754e-16
6.78711e-16
2.21022e-15
6.96403e-15
2.44601e-14
7.90903e-14
2.34878e-13
6.3827e-13
1.60841e-12
3.79912e-12
8.49591e-12
2.03665e-11
4.61735e-11
9.95271e-11
2.03964e-10
3.99115e-10
7.4842e-10
1.35408e-09
2.3771e-09
4.05802e-09
6.74789e-09
1.09045e-08
1.71663e-08
2.64162e-08
3.95837e-08
5.78396e-08
8.26489e-08
1.15459e-07
1.57931e-07
2.12255e-07
2.80177e-07
3.63251e-07
4.63265e-07
5.81515e-07
7.19364e-07
8.77478e-07
1.05789e-06
1.25972e-06
1.48073e-06
1.71846e-06
1.96905e-06
2.22803e-06
2.49066e-06
2.74746e-06
2.98864e-06
3.20808e-06
3.4012e-06
3.54736e-06
3.64183e-06
3.69233e-06
3.68949e-06
3.61275e-06
3.49589e-06
3.33054e-06
3.11144e-06
2.87164e-06
2.60149e-06
2.32242e-06
2.03819e-06
1.76511e-06
1.50048e-06
1.25956e-06
1.04053e-06
8.43057e-07
6.79269e-07
5.28516e-07
4.17123e-07
3.12383e-07
2.40635e-07
1.75005e-07
1.29742e-07
9.16087e-08
6.48155e-08
4.46032e-08
2.96888e-08
2.00338e-08
1.21318e-08
8.15072e-09
4.8037e-09
3.84876e-09
2.89383e-09
2.12089e-09
1.6772e-09
1.23351e-09
8.69412e-10
6.69893e-10
4.70374e-10
3.29997e-10
2.40002e-10
1.51866e-10
1.10818e-10
6.97706e-11
4.70027e-11
2.74854e-11
1.73134e-11
9.4129e-12
4.44799e-12
2.68978e-12
1.495e-12
6.05187e-13
0
)


113
(
0
2.95205e-13
1.06034e-12
2.87201e-12
6.40762e-12
1.29543e-11
2.46879e-11
4.48337e-11
7.84588e-11
1.32204e-10
2.16108e-10
3.43841e-10
5.31413e-10
8.00831e-10
1.18277e-09
1.72835e-09
2.4994e-09
3.55822e-09
4.98183e-09
6.85732e-09
9.30539e-09
1.24766e-08
1.64884e-08
2.17691e-08
2.83862e-08
3.66312e-08
4.68307e-08
5.91744e-08
7.40704e-08
9.20169e-08
1.13245e-07
1.38205e-07
1.67551e-07
2.01292e-07
2.40485e-07
2.85043e-07
3.35808e-07
3.92626e-07
4.55422e-07
5.25445e-07
6.01252e-07
6.84599e-07
7.73406e-07
8.69333e-07
9.69029e-07
1.07557e-06
1.1847e-06
1.29677e-06
1.41155e-06
1.52626e-06
1.64061e-06
1.75191e-06
1.85943e-06
1.96213e-06
2.05811e-06
2.14389e-06
2.2189e-06
2.28308e-06
2.33616e-06
2.37277e-06
2.39371e-06
2.40182e-06
2.39474e-06
2.36723e-06
2.32801e-06
2.27435e-06
2.20242e-06
2.12211e-06
2.0276e-06
1.92339e-06
1.81354e-06
1.69335e-06
1.5714e-06
1.44538e-06
1.31964e-06
1.19416e-06
1.07197e-06
9.51043e-07
8.38811e-07
7.28532e-07
6.31417e-07
5.37853e-07
4.56111e-07
3.80172e-07
3.13464e-07
2.54999e-07
2.03171e-07
1.61556e-07
1.23345e-07
9.555e-08
7.04706e-08
6.1078e-08
5.16853e-08
4.33595e-08
3.69634e-08
3.05674e-08
2.48961e-08
2.07234e-08
1.65507e-08
1.31998e-08
1.0549e-08
7.93457e-09
6.23992e-09
4.54528e-09
3.36722e-09
2.28188e-09
1.56643e-09
9.68281e-10
5.30383e-10
3.56765e-10
2.21956e-10
1.05901e-10
0
)


113
(
0
2.94369e-10
6.88912e-10
1.25755e-09
2.02345e-09
3.03364e-09
4.34404e-09
6.01611e-09
8.11599e-09
1.07136e-08
1.38827e-08
1.7701e-08
2.22632e-08
2.76737e-08
3.40281e-08
4.1507e-08
5.01358e-08
6.00905e-08
7.13927e-08
8.41289e-08
9.85246e-08
1.14778e-07
1.32455e-07
1.52621e-07
1.74808e-07
1.99372e-07
2.25968e-07
2.54828e-07
2.86133e-07
3.19749e-07
3.55914e-07
3.94902e-07
4.35651e-07
4.78948e-07
5.23757e-07
5.72972e-07
6.22344e-07
6.73177e-07
7.27257e-07
7.82317e-07
8.37628e-07
8.94951e-07
9.51914e-07
1.00956e-06
1.06804e-06
1.12345e-06
1.18026e-06
1.23596e-06
1.28903e-06
1.33996e-06
1.38907e-06
1.43418e-06
1.47622e-06
1.51552e-06
1.55087e-06
1.58082e-06
1.60585e-06
1.62631e-06
1.64229e-06
1.65195e-06
1.65562e-06
1.65446e-06
1.64765e-06
1.63334e-06
1.61476e-06
1.59091e-06
1.55998e-06
1.52568e-06
1.48551e-06
1.44103e-06
1.39404e-06
1.3405e-06
1.28518e-06
1.22534e-06
1.1633e-06
1.09909e-06
1.03425e-06
9.69177e-07
9.02462e-07
8.35596e-07
7.6891e-07
7.03039e-07
6.39882e-07
5.7793e-07
5.17893e-07
4.60417e-07
4.05002e-07
3.53722e-07
3.0382e-07
2.60456e-07
2.18936e-07
2.0032e-07
1.81705e-07
1.64118e-07
1.48392e-07
1.32666e-07
1.17796e-07
1.04696e-07
9.15958e-08
7.97321e-08
6.89216e-08
5.81844e-08
4.9303e-08
4.04217e-08
3.2883e-08
2.55875e-08
1.95157e-08
1.39041e-08
8.92644e-09
6.61897e-09
4.43507e-09
2.26333e-09
0
)


113
(
0
3.80843e-09
7.74286e-09
1.22324e-08
1.73667e-08
2.32403e-08
2.99257e-08
3.74733e-08
4.59198e-08
5.52941e-08
6.56212e-08
7.69243e-08
8.92246e-08
1.02544e-07
1.16901e-07
1.32392e-07
1.491e-07
1.669e-07
1.85796e-07
2.05789e-07
2.26879e-07
2.4906e-07
2.72322e-07
2.96803e-07
3.22673e-07
3.49945e-07
3.77953e-07
4.06807e-07
4.36619e-07
4.67193e-07
4.98222e-07
5.28985e-07
5.61582e-07
5.93739e-07
6.25487e-07
6.58747e-07
6.91401e-07
7.23284e-07
7.57527e-07
7.88564e-07
8.21365e-07
8.5235e-07
8.84596e-07
9.14599e-07
9.44009e-07
9.72431e-07
9.99929e-07
1.0257e-06
1.04939e-06
1.07209e-06
1.09352e-06
1.11285e-06
1.13013e-06
1.14551e-06
1.15897e-06
1.17016e-06
1.17906e-06
1.18574e-06
1.19019e-06
1.19139e-06
1.19022e-06
1.18694e-06
1.18104e-06
1.17261e-06
1.16235e-06
1.14968e-06
1.13246e-06
1.11387e-06
1.09381e-06
1.07122e-06
1.04715e-06
1.01806e-06
9.88182e-07
9.56494e-07
9.23104e-07
8.8804e-07
8.50988e-07
8.13166e-07
7.74378e-07
7.35386e-07
6.95079e-07
6.54584e-07
6.13466e-07
5.72276e-07
5.30972e-07
4.89906e-07
4.4903e-07
4.08901e-07
3.6902e-07
3.30614e-07
2.92779e-07
2.74529e-07
2.5628e-07
2.38422e-07
2.21271e-07
2.0412e-07
1.87359e-07
1.71405e-07
1.5545e-07
1.40162e-07
1.2544e-07
1.10763e-07
9.72262e-08
8.36892e-08
7.10272e-08
5.85232e-08
4.67635e-08
3.52041e-08
2.38392e-08
1.8158e-08
1.23495e-08
6.35062e-09
0
)


113
(
0
1.08869e-08
2.11484e-08
3.14835e-08
4.21754e-08
5.33815e-08
6.51959e-08
7.76624e-08
9.07912e-08
1.04572e-07
1.18986e-07
1.34007e-07
1.49612e-07
1.65775e-07
1.82471e-07
1.99709e-07
2.17482e-07
2.35698e-07
2.54331e-07
2.7335e-07
2.92727e-07
3.12431e-07
3.3243e-07
3.52722e-07
3.73223e-07
3.93896e-07
4.14703e-07
4.35603e-07
4.56555e-07
4.77515e-07
4.98441e-07
5.19286e-07
5.40004e-07
5.60802e-07
5.8618e-07
6.06387e-07
6.26267e-07
6.45776e-07
6.64868e-07
6.83496e-07
7.01617e-07
7.19169e-07
7.36114e-07
7.53073e-07
7.73433e-07
7.90218e-07
8.05282e-07
8.20057e-07
8.33065e-07
8.44392e-07
8.53989e-07
8.62154e-07
8.68688e-07
8.73749e-07
8.77892e-07
8.79603e-07
8.7915e-07
8.72329e-07
8.6058e-07
8.5937e-07
8.5683e-07
8.53233e-07
8.48414e-07
8.41933e-07
8.34482e-07
8.25831e-07
8.16824e-07
8.06771e-07
7.93919e-07
7.79833e-07
7.65034e-07
7.48371e-07
7.31161e-07
7.12538e-07
6.92997e-07
6.72553e-07
6.50869e-07
6.28706e-07
6.05104e-07
5.81249e-07
5.56087e-07
5.30644e-07
5.04267e-07
4.7751e-07
4.50148e-07
4.22383e-07
3.94293e-07
3.65862e-07
3.37318e-07
3.08604e-07
2.7992e-07
2.65615e-07
2.5131e-07
2.37066e-07
2.22932e-07
2.08799e-07
1.94747e-07
1.80866e-07
1.66984e-07
1.53247e-07
1.39634e-07
1.26028e-07
1.12615e-07
9.92025e-08
8.58266e-08
7.24556e-08
5.89075e-08
4.51479e-08
3.09785e-08
2.36978e-08
1.61097e-08
8.24949e-09
0
)


113
(
0
1.56893e-08
3.01856e-08
4.4015e-08
5.7538e-08
7.09283e-08
8.43066e-08
9.77535e-08
1.11317e-07
1.25021e-07
1.38875e-07
1.52876e-07
1.67019e-07
1.81292e-07
1.95682e-07
2.10178e-07
2.24762e-07
2.39404e-07
2.54085e-07
2.68786e-07
2.83488e-07
2.98172e-07
3.12819e-07
3.24957e-07
3.38787e-07
3.52767e-07
3.66585e-07
3.8022e-07
3.93649e-07
4.06852e-07
4.19805e-07
4.32489e-07
4.4488e-07
4.56958e-07
4.68703e-07
4.80084e-07
4.91091e-07
5.01707e-07
5.11913e-07
5.21692e-07
5.31026e-07
5.39883e-07
5.48251e-07
5.56121e-07
5.6348e-07
5.70313e-07
5.76606e-07
5.82348e-07
5.87487e-07
5.92014e-07
5.95948e-07
5.99274e-07
6.01993e-07
6.04107e-07
6.05622e-07
6.06357e-07
6.0643e-07
6.05893e-07
6.04767e-07
6.02835e-07
6.00184e-07
5.96962e-07
5.9308e-07
5.883e-07
5.82993e-07
5.77034e-07
5.70165e-07
5.6284e-07
5.54697e-07
5.45844e-07
5.36579e-07
5.26224e-07
5.1554e-07
5.0401e-07
4.91914e-07
4.7926e-07
4.65811e-07
4.52056e-07
4.39029e-07
4.25831e-07
4.09647e-07
3.93261e-07
3.76203e-07
3.58838e-07
3.40983e-07
3.22738e-07
3.04178e-07
2.8516e-07
2.6599e-07
2.46305e-07
2.26483e-07
2.16412e-07
2.06341e-07
1.96194e-07
1.8591e-07
1.75626e-07
1.65267e-07
1.54753e-07
1.44239e-07
1.33573e-07
1.22776e-07
1.11965e-07
1.00799e-07
8.9632e-08
7.80578e-08
6.64082e-08
5.41835e-08
4.16285e-08
2.85326e-08
2.17726e-08
1.47418e-08
7.50449e-09
0
)


113
(
0
1.49785e-08
2.89421e-08
4.20938e-08
5.46694e-08
6.67675e-08
7.84682e-08
8.98408e-08
1.00941e-07
1.11811e-07
1.22482e-07
1.32977e-07
1.4331e-07
1.53495e-07
1.63536e-07
1.7343e-07
1.83169e-07
1.92769e-07
2.02229e-07
2.11545e-07
2.20712e-07
2.29724e-07
2.38575e-07
2.47231e-07
2.55712e-07
2.64011e-07
2.72119e-07
2.8003e-07
2.87734e-07
2.95225e-07
3.02494e-07
3.09533e-07
3.16335e-07
3.22892e-07
3.29196e-07
3.35234e-07
3.41005e-07
3.46505e-07
3.51728e-07
3.56667e-07
3.61317e-07
3.65663e-07
3.69703e-07
3.73436e-07
3.7686e-07
3.79968e-07
3.82758e-07
3.85226e-07
3.87346e-07
3.89118e-07
3.90555e-07
3.91652e-07
3.92413e-07
3.92839e-07
3.92938e-07
3.92612e-07
3.91929e-07
3.90919e-07
3.89592e-07
3.87836e-07
3.85697e-07
3.83257e-07
3.80467e-07
3.77202e-07
3.7366e-07
3.69774e-07
3.65409e-07
3.60802e-07
3.55763e-07
3.50348e-07
3.44715e-07
3.385e-07
3.32108e-07
3.25261e-07
3.18104e-07
3.10643e-07
3.02739e-07
2.94665e-07
2.86035e-07
2.77304e-07
2.68015e-07
2.58588e-07
2.48702e-07
2.38589e-07
2.28114e-07
2.17315e-07
2.06255e-07
1.94753e-07
1.83104e-07
1.70856e-07
1.58415e-07
1.5197e-07
1.45526e-07
1.38959e-07
1.32171e-07
1.25383e-07
1.18472e-07
1.11307e-07
1.04142e-07
9.67507e-08
8.91676e-08
8.1567e-08
7.35265e-08
6.54861e-08
5.7032e-08
4.85022e-08
3.94867e-08
3.02327e-08
2.06083e-08
1.56621e-08
1.056e-08
5.34756e-09
0
)


113
(
0
9.41219e-09
1.83538e-08
2.68532e-08
3.4991e-08
4.27885e-08
5.0266e-08
5.74468e-08
6.43544e-08
7.10101e-08
7.74325e-08
8.36374e-08
8.96379e-08
9.54448e-08
1.01067e-07
1.06501e-07
1.11746e-07
1.16827e-07
1.21751e-07
1.26521e-07
1.3114e-07
1.35611e-07
1.39935e-07
1.44093e-07
1.4811e-07
1.51987e-07
1.55725e-07
1.59325e-07
1.62786e-07
1.66109e-07
1.69293e-07
1.7234e-07
1.75248e-07
1.78017e-07
1.80647e-07
1.83134e-07
1.85482e-07
1.87691e-07
1.8976e-07
1.9169e-07
1.93479e-07
1.95123e-07
1.96624e-07
1.97982e-07
1.99198e-07
2.00271e-07
2.01201e-07
2.01988e-07
2.02622e-07
2.03103e-07
2.0344e-07
2.0363e-07
2.03675e-07
2.03578e-07
2.03342e-07
2.02927e-07
2.0236e-07
2.01656e-07
2.00819e-07
1.99801e-07
1.98622e-07
1.97317e-07
1.95864e-07
1.9421e-07
1.92439e-07
1.9052e-07
1.88396e-07
1.86167e-07
1.8375e-07
1.81166e-07
1.78485e-07
1.7554e-07
1.72514e-07
1.69275e-07
1.65887e-07
1.62352e-07
1.58595e-07
1.54752e-07
1.50617e-07
1.46427e-07
1.41926e-07
1.37343e-07
1.32489e-07
1.27492e-07
1.22267e-07
1.16826e-07
1.1121e-07
1.05285e-07
9.92569e-08
9.27966e-08
8.61973e-08
8.27355e-08
7.92736e-08
7.5726e-08
7.20233e-08
6.83207e-08
6.45367e-08
6.05847e-08
5.66326e-08
5.25437e-08
4.83383e-08
4.41233e-08
3.96673e-08
3.52113e-08
3.05519e-08
2.58554e-08
2.09437e-08
1.59361e-08
1.07837e-08
8.15783e-09
5.47751e-09
2.76048e-09
0
)


113
(
0
8.65817e-10
1.71063e-09
2.53362e-09
3.33711e-09
4.12074e-09
4.88419e-09
5.62749e-09
6.35088e-09
7.05474e-09
7.73944e-09
8.40532e-09
9.0527e-09
9.68181e-09
1.02929e-08
1.08848e-08
1.14568e-08
1.20112e-08
1.25481e-08
1.30677e-08
1.35701e-08
1.40552e-08
1.45232e-08
1.49715e-08
1.5403e-08
1.58178e-08
1.62158e-08
1.65971e-08
1.69618e-08
1.731e-08
1.76415e-08
1.79566e-08
1.82552e-08
1.85373e-08
1.88031e-08
1.90522e-08
1.9285e-08
1.95018e-08
1.97025e-08
1.98873e-08
2.00561e-08
2.02086e-08
2.03449e-08
2.04655e-08
2.05702e-08
2.06593e-08
2.07327e-08
2.07905e-08
2.08317e-08
2.08564e-08
2.08656e-08
2.08591e-08
2.08372e-08
2.08002e-08
2.07484e-08
2.06776e-08
2.0591e-08
2.04898e-08
2.03746e-08
2.02405e-08
2.00896e-08
1.99254e-08
1.97458e-08
1.95452e-08
1.93323e-08
1.91042e-08
1.88545e-08
1.8594e-08
1.83139e-08
1.80165e-08
1.77091e-08
1.73745e-08
1.70314e-08
1.66665e-08
1.62865e-08
1.58915e-08
1.54741e-08
1.50481e-08
1.45932e-08
1.41329e-08
1.36426e-08
1.31446e-08
1.26211e-08
1.20847e-08
1.15278e-08
1.09522e-08
1.03617e-08
9.746e-09
9.12195e-09
8.46517e-09
7.79863e-09
7.454e-09
7.10936e-09
6.75923e-09
6.39913e-09
6.03904e-09
5.67419e-09
5.2995e-09
4.92481e-09
4.54285e-09
4.15469e-09
3.76607e-09
3.3658e-09
2.96553e-09
2.55628e-09
2.1454e-09
1.72576e-09
1.30248e-09
8.73837e-10
6.57737e-10
4.39771e-10
2.2059e-10
0
)

)


10
(

113
(
0
5.10164e-36
7.35385e-35
4.74289e-34
2.03191e-33
7.42688e-33
2.41144e-32
6.93585e-32
1.72919e-31
3.81478e-31
7.88246e-31
1.6025e-30
3.3025e-30
6.94462e-30
1.59908e-29
4.75333e-29
1.622e-28
5.84462e-28
1.835e-27
7.085e-27
3.758e-26
2.1695e-25
1.31867e-24
7.13e-24
2.683e-23
2.142e-22
1.73667e-21
1.358e-20
9.6775e-20
5.40917e-19
2.94008e-18
2.82327e-17
2.61267e-16
2.5325e-15
2.84027e-14
3.61745e-13
4.07818e-12
3.47273e-11
2.09e-10
1.70991e-09
9.99273e-09
4.516e-08
1.43318e-07
3.709e-07
7.72818e-07
1.36136e-06
2.12727e-06
2.99667e-06
3.89833e-06
4.84e-06
5.70154e-06
6.60167e-06
7.43692e-06
8.14286e-06
8.65714e-06
8.93143e-06
8.98571e-06
8.8e-06
8.26e-06
7.6025e-06
6.8275e-06
5.95125e-06
5.07687e-06
4.23313e-06
3.51059e-06
2.84e-06
2.35111e-06
1.88889e-06
1.53333e-06
1.21889e-06
9.66111e-07
7.64579e-07
5.97211e-07
4.66684e-07
3.51947e-07
2.714e-07
1.994e-07
1.504e-07
1.0715e-07
7.922e-08
5.512e-08
4.022e-08
2.762e-08
1.97105e-08
1.29737e-08
9.357e-09
6.087e-09
4.15e-09
2.45889e-09
1.64778e-09
9.72882e-10
7.94353e-10
6.15824e-10
4.57563e-10
3.80375e-10
3.03187e-10
2.26e-10
1.89667e-10
1.53333e-10
1.17e-10
9.43333e-11
7.16667e-11
5.46091e-11
4.12909e-11
2.95889e-11
2.03111e-11
1.267e-11
6.66667e-12
2.85e-12
1.64062e-12
5.805e-13
1.0365e-13
0
)


113
(
0
5.8318e-26
2.17669e-24
3.70999e-23
4.21404e-22
3.5043e-21
3.12925e-20
2.38219e-19
1.49087e-18
9.81286e-18
5.31192e-17
2.52265e-16
1.00572e-15
3.43436e-15
1.21804e-14
4.31591e-14
1.49493e-13
4.73144e-13
1.19011e-12
3.14132e-12
9.01654e-12
2.23297e-11
5.25784e-11
1.16755e-10
2.43041e-10
5.31489e-10
1.09212e-09
2.1283e-09
3.95623e-09
7.03399e-09
1.24329e-08
2.1651e-08
3.67075e-08
5.9538e-08
9.27679e-08
1.41242e-07
2.09212e-07
3.01911e-07
4.24866e-07
5.88943e-07
7.95763e-07
1.04788e-06
1.35262e-06
1.70508e-06
2.10895e-06
2.55515e-06
3.03582e-06
3.54043e-06
4.05562e-06
4.56795e-06
5.05063e-06
5.49277e-06
5.87556e-06
6.19365e-06
6.42098e-06
6.54032e-06
6.57607e-06
6.52692e-06
6.33963e-06
6.08925e-06
5.77577e-06
5.3767e-06
4.95214e-06
4.49026e-06
4.01991e-06
3.54591e-06
3.09851e-06
2.66229e-06
2.27084e-06
1.90747e-06
1.58621e-06
1.30878e-06
1.06055e-06
8.5958e-07
6.78858e-07
5.43167e-07
4.18734e-07
3.28953e-07
2.47836e-07
1.91052e-07
1.4035e-07
1.0596e-07
7.56471e-08
5.56946e-08
3.83321e-08
2.79947e-08
1.84379e-08
1.29889e-08
8.23781e-09
5.66067e-09
3.47674e-09
2.84352e-09
2.2103e-09
1.64335e-09
1.34146e-09
1.03958e-09
7.37698e-10
5.9581e-10
4.53922e-10
3.12034e-10
2.43462e-10
1.74889e-10
1.26126e-10
9.05688e-11
6.13648e-11