/*--------------------------------*- C++ -*----------------------------------*\
| =========                 |                                                 |
| \\      /  F ield         | OpenFOAM: The Open Source CFD Toolbox           |
|  \\    /   O peration     | Version:  2.3.0                                 |
|   \\  /    A nd           | Web:      www.OpenFOAM.org                      |
|    \\/     M anipulation  |                                                 |
\*---------------------------------------------------------------------------*/
FoamFile
{
    version     2.0;
    format      ascii;
    class       dictionary;
    location    "constant";
    object      C2H;
}
// * * * * * * * * * * * * * * * * * * * * * * * * * * * * * * * * * * * * * //

C2H_table
13
(

10
(

113
(
0
7.08e-44
3.23022e-41
1.49281e-39
2.3993e-38
1.96005e-37
9.6537e-37
7.77372e-36
4.60428e-35
1.44854e-34
6.71344e-34
2.87269e-33
6.39e-33
2.77799e-32
9.40311e-32
2.24839e-31
1.02597e-30
3.58909e-30
1.39366e-29
1.18362e-28
3.06215e-28
5.60152e-27
8.89126e-26
3.92653e-25
1.46049e-23
7.58745e-23
2.0596e-21
8.28795e-20
2.77147e-19
1.54023e-17
3.59698e-16
1.92826e-15
6.52511e-14
2.57497e-13
4.83234e-12
6.0662e-11
1.84434e-10
1.72385e-09
6.40842e-09
1.89211e-08
5.04879e-08
9.2672e-08
1.49939e-07
1.9724e-07
2.34964e-07
2.4974e-07
2.58385e-07
2.52799e-07
2.44676e-07
2.31162e-07
2.16209e-07
1.99631e-07
1.82375e-07
1.64667e-07
1.48299e-07
1.32563e-07
1.1851e-07
1.05144e-07
9.36e-08
8.28754e-08
7.36629e-08
6.53771e-08
5.79981e-08
5.14561e-08
4.53417e-08
3.9925e-08
3.46706e-08
2.99917e-08
2.53364e-08
2.12455e-08
1.71545e-08
1.37063e-08
1.03805e-08
7.70554e-09
5.41275e-09
3.57129e-09
2.37933e-09
1.31335e-09
8.62465e-10
4.1158e-10
2.54504e-10
1.26486e-10
6.15681e-11
3.21434e-11
1.18347e-11
6.39973e-12
1.66956e-12
9.33326e-13
1.97087e-13
9.89316e-14
2.05105e-14
9.03831e-15
6.32555e-15
3.6128e-15
9.00041e-16
3.59891e-16
2.33571e-16
1.07251e-16
1.48996e-17
9.89838e-18
4.89711e-18
4.7436e-19
2.94024e-19
1.13688e-19
1.01706e-20
4.422e-21
2.35174e-22
6.43649e-23
2.68062e-24
1.55893e-25
4.20497e-26
1.26638e-27
0
)


113
(
0
3.45376e-25
1.38106e-23
3.3001e-22
3.22346e-21
2.90735e-20
1.57834e-19
1.31637e-18
8.79786e-18
3.02429e-17
1.61221e-16
8.09983e-16
1.86557e-15
9.24819e-15
3.1247e-14
7.42789e-14
2.81668e-13
6.5863e-13
1.6629e-12
4.53691e-12
9.06901e-12
2.36824e-11
4.78002e-11
9.57805e-11
1.96986e-10
3.32054e-10
6.59404e-10
1.15049e-09
1.87721e-09
3.18338e-09
4.89146e-09
7.56656e-09
1.13367e-08
1.58543e-08
2.2693e-08
3.07254e-08
4.03402e-08
5.22951e-08
6.52681e-08
7.98771e-08
9.52826e-08
1.11004e-07
1.26423e-07
1.4079e-07
1.54147e-07
1.64361e-07
1.73451e-07
1.78285e-07
1.81448e-07
1.81059e-07
1.78477e-07
1.73423e-07
1.66379e-07
1.58009e-07
1.48345e-07
1.38073e-07
1.27452e-07
1.16687e-07
1.0628e-07
9.60341e-08
8.64779e-08
7.73445e-08
6.89168e-08
6.11404e-08
5.38666e-08
4.74129e-08
4.12182e-08
3.59415e-08
3.07063e-08
2.6469e-08
2.22318e-08
1.87711e-08
1.54584e-08
1.26727e-08
1.01965e-08
8.03086e-09
6.3121e-09
4.70114e-09
3.6165e-09
2.53186e-09
1.88165e-09
1.2744e-09
8.68715e-10
5.76404e-10
3.49243e-10
2.28378e-10
1.19283e-10
7.68798e-11
3.44763e-11
2.1274e-11
8.97489e-12
6.31848e-12
4.76518e-12
3.21188e-12
1.65858e-12
1.13372e-12
8.04742e-13
4.75766e-13
2.20892e-13
1.56564e-13
9.22356e-14
3.42612e-14
2.28817e-14
1.15023e-14
4.23886e-15
2.2141e-15
6.47183e-16
2.57598e-16
6.65124e-17
2.45701e-17
1.10563e-17
3.00963e-18
0
)


113
(
0
3.40857e-13
1.1719e-12
3.01173e-12
6.47638e-12
1.23757e-11
2.20572e-11
4.1123e-11
6.93211e-11
1.06654e-10
1.67585e-10
2.56329e-10
3.66925e-10
5.51228e-10
7.78008e-10
1.06591e-09
1.48074e-09
1.96681e-09
2.6458e-09
3.47444e-09
4.43578e-09
5.67999e-09
7.10544e-09
8.95726e-09
1.10735e-08
1.33494e-08
1.61626e-08
1.92629e-08
2.27764e-08
2.6706e-08
3.08676e-08
3.55108e-08
4.04921e-08
4.56978e-08
5.13001e-08
5.70141e-08
6.28762e-08
6.88723e-08
7.48539e-08
8.07323e-08
8.64203e-08
9.19595e-08
9.70343e-08
1.01729e-07
1.06058e-07
1.09563e-07
1.12793e-07
1.15068e-07
1.16925e-07
1.17893e-07
1.18213e-07
1.17803e-07
1.16613e-07
1.14903e-07
1.12329e-07
1.09347e-07
1.0572e-07
1.0183e-07
9.73766e-08
9.26694e-08
8.7662e-08
8.24706e-08
7.72103e-08
7.18866e-08
6.65727e-08
6.12748e-08
5.60493e-08
5.10807e-08
4.61305e-08
4.16213e-08
3.71121e-08
3.31069e-08
2.91977e-08
2.56875e-08
2.24118e-08
1.93909e-08
1.67367e-08
1.41817e-08
1.21114e-08
1.00411e-08
8.46667e-09
6.94125e-09
5.69294e-09
4.6005e-09
3.64287e-09
2.90517e-09
2.20741e-09
1.736e-09
1.26458e-09
9.6687e-10
6.74528e-10
5.75508e-10
4.91378e-10
4.07248e-10
3.23118e-10
2.71284e-10
2.25601e-10
1.79918e-10
1.39759e-10
1.13806e-10
8.78525e-11
6.33742e-11
4.97132e-11
3.60521e-11
2.51246e-11
1.76763e-11
1.11219e-11
6.86645e-12
3.6855e-12
2.40393e-12
1.49188e-12
6.97913e-13
0
)


113
(
0
8.03933e-11
1.8289e-10
3.23415e-10
5.06023e-10
7.35398e-10
1.02202e-09
1.38536e-09
1.81414e-09
2.30368e-09
2.91429e-09
3.61078e-09
4.37476e-09
5.3439e-09
6.36576e-09
7.46348e-09
8.78832e-09
1.02089e-08
1.18197e-08
1.35365e-08
1.53473e-08
1.7297e-08
1.93456e-08
2.16315e-08
2.40448e-08
2.65298e-08
2.9017e-08
3.16843e-08
3.46108e-08
3.74599e-08
4.03392e-08
4.34054e-08
4.63877e-08
4.9317e-08
5.22823e-08
5.52225e-08
5.81296e-08
6.09243e-08
6.36523e-08
6.62533e-08
6.86779e-08
7.09941e-08
7.30965e-08
7.50234e-08
7.67819e-08
7.82184e-08
7.95495e-08
8.05245e-08
8.13483e-08
8.18509e-08
8.21175e-08
8.21181e-08
8.17675e-08
8.11829e-08
8.03444e-08
7.93864e-08
7.81542e-08
7.68099e-08
7.49962e-08
7.29717e-08
7.08369e-08
6.86346e-08
6.62313e-08
6.36426e-08
6.0987e-08
5.82225e-08
5.54216e-08
5.24917e-08
4.95624e-08
4.66457e-08
4.3729e-08
4.08996e-08
3.80869e-08
3.53031e-08
3.25362e-08
2.98466e-08
2.72685e-08
2.47428e-08
2.24727e-08
2.02026e-08
1.81701e-08
1.61611e-08
1.43311e-08
1.26018e-08
1.09769e-08
9.52261e-09
8.11217e-09
6.9505e-09
5.78883e-09
4.87339e-09
3.96557e-09
3.59231e-09
3.24452e-09
2.89673e-09
2.54894e-09
2.27325e-09
2.0113e-09
1.74934e-09
1.50601e-09
1.31059e-09
1.11517e-09
9.25718e-10
7.80098e-10
6.34477e-10
5.04684e-10
3.95033e-10
2.92244e-10
2.07103e-10
1.31562e-10
9.65179e-11
6.43977e-11
3.26157e-11
0
)


113
(
0
4.8188e-10
9.64812e-10
1.49713e-09
2.09009e-09
2.74754e-09
3.47737e-09
4.29095e-09
5.16703e-09
6.09851e-09
7.12651e-09
8.21343e-09
9.34663e-09
1.0584e-08
1.18627e-08
1.32006e-08
1.46141e-08
1.60613e-08
1.75801e-08
1.91389e-08
2.07331e-08
2.23837e-08
2.40533e-08
2.57587e-08
2.75419e-08
2.93688e-08
3.11913e-08
3.29723e-08
3.46935e-08
3.64945e-08
3.82816e-08
3.99413e-08
4.16342e-08
4.33462e-08
4.49534e-08
4.64568e-08
4.78223e-08
4.92753e-08
5.06686e-08
5.18588e-08
5.30084e-08
5.41211e-08
5.50975e-08
5.59839e-08
5.67839e-08
5.74398e-08
5.8045e-08
5.84615e-08
5.88327e-08
5.91077e-08
5.92655e-08
5.92911e-08
5.91539e-08
5.89081e-08
5.86102e-08
5.82877e-08
5.76477e-08
5.68781e-08
5.60676e-08
5.52387e-08
5.42681e-08
5.32106e-08
5.20181e-08
5.07012e-08
4.93492e-08
4.79403e-08
4.65121e-08
4.50157e-08
4.35139e-08
4.18852e-08
4.02565e-08
3.85426e-08
3.68125e-08
3.49227e-08
3.29392e-08
3.10954e-08
2.94527e-08
2.77937e-08
2.60552e-08
2.43167e-08
2.26327e-08
2.09542e-08
1.93317e-08
1.77406e-08
1.61914e-08
1.47104e-08
1.32484e-08
1.1894e-08
1.05396e-08
9.31727e-09
8.09904e-09
7.54252e-09
7.00262e-09
6.46271e-09
5.9228e-09
5.43915e-09
4.96622e-09
4.49329e-09
4.03775e-09
3.62693e-09
3.21612e-09
2.81183e-09
2.4554e-09
2.09898e-09
1.76129e-09
1.44744e-09
1.14109e-09
8.54021e-10
5.73396e-10
4.34605e-10
2.94239e-10
1.50662e-10
0
)


113
(
0
9.14303e-10
1.76167e-09
2.59664e-09
3.44503e-09
4.3169e-09
5.2201e-09
6.16171e-09
7.1313e-09
8.12532e-09
9.15887e-09
1.02137e-08
1.12853e-08
1.23891e-08
1.35033e-08
1.46324e-08
1.57763e-08
1.69258e-08
1.80844e-08
1.92449e-08
2.04072e-08
2.1566e-08
2.27216e-08
2.38691e-08
2.50049e-08
2.61336e-08
2.72377e-08
2.83288e-08
2.9401e-08
3.04427e-08
3.14674e-08
3.24571e-08
3.3416e-08
3.43468e-08
3.48595e-08
3.55007e-08
3.63123e-08
3.70693e-08
3.77982e-08
3.84771e-08
3.91064e-08
3.97043e-08
4.02355e-08
4.11015e-08
4.2289e-08
4.28248e-08
4.32372e-08
4.36562e-08
4.39836e-08
4.41167e-08
4.41862e-08
4.41841e-08
4.4074e-08
4.38919e-08
4.37913e-08
4.37291e-08
4.28063e-08
4.15321e-08
4.08298e-08
4.03845e-08
3.98704e-08
3.93143e-08
3.87027e-08
3.80401e-08
3.73394e-08
3.65765e-08
3.58366e-08
3.51786e-08
3.45086e-08
3.35523e-08
3.2596e-08
3.15805e-08
3.05538e-08
2.94899e-08
2.84042e-08
2.72993e-08
2.61667e-08
2.50285e-08
2.38623e-08
2.2696e-08
2.15118e-08
2.03257e-08
1.91362e-08
1.79448e-08
1.67569e-08
1.55748e-08
1.43962e-08
1.32378e-08
1.20794e-08
1.0957e-08
9.83563e-09
9.29324e-09
8.75662e-09
8.22e-09
7.68338e-09
7.16961e-09
6.66019e-09
6.15077e-09
5.64882e-09
5.16606e-09
4.6833e-09
4.20307e-09
3.74144e-09
3.27981e-09
2.8227e-09
2.37135e-09
1.91899e-09
1.46403e-09
9.9868e-10
7.62481e-10
5.16527e-10
2.63903e-10
0
)


113
(
0
1.04212e-09
1.99636e-09
2.89528e-09
3.76427e-09
4.61515e-09
5.45477e-09
6.28887e-09
7.1213e-09
7.9528e-09
8.78413e-09
9.6152e-09
1.04461e-08
1.12747e-08
1.21013e-08
1.29251e-08
1.37425e-08
1.45565e-08
1.5361e-08
1.61579e-08
1.69481e-08
1.77224e-08
1.84398e-08
1.9e-08
1.96505e-08
2.03513e-08
2.10238e-08
2.16835e-08
2.23247e-08
2.29389e-08
2.3539e-08
2.41107e-08
2.46594e-08
2.51924e-08
2.56865e-08
2.61629e-08
2.66156e-08
2.70319e-08
2.74299e-08
2.77955e-08
2.81297e-08
2.84442e-08
2.87173e-08
2.89651e-08
2.91886e-08
2.93682e-08
2.95334e-08
2.96498e-08
2.97477e-08
2.98067e-08
2.98379e-08
2.98379e-08
2.98017e-08
2.97415e-08
2.96395e-08
2.95177e-08
2.93514e-08
2.91671e-08
2.8939e-08
2.86914e-08
2.84046e-08
2.80938e-08
2.77506e-08
2.73773e-08
2.69808e-08
2.65464e-08
2.60991e-08
2.56056e-08
2.51099e-08
2.45601e-08
2.40102e-08
2.34156e-08
2.28125e-08
2.21783e-08
2.15259e-08
2.0855e-08
2.01575e-08
1.94771e-08
1.88805e-08
1.8284e-08
1.75067e-08
1.67116e-08
1.59005e-08
1.50804e-08
1.42532e-08
1.34145e-08
1.25739e-08
1.1723e-08
1.0872e-08
1.00146e-08
9.15692e-09
8.72681e-09
8.29629e-09
7.86577e-09
7.43525e-09
7.00301e-09
6.57045e-09
6.13788e-09
5.7039e-09
5.26628e-09
4.82867e-09
4.38975e-09
3.94134e-09
3.49292e-09
3.03651e-09
2.56993e-09
2.09645e-09
1.60524e-09
1.09613e-09
8.35991e-10
5.64665e-10
2.87118e-10
0
)


113
(
0
8.54581e-10
1.64769e-09
2.38986e-09
3.0949e-09
3.76976e-09
4.4173e-09
5.03958e-09
5.64579e-09
6.23849e-09
6.81072e-09
7.37177e-09
7.92405e-09
8.45773e-09
8.98409e-09
9.49992e-09
1.00016e-08
1.04968e-08
1.09771e-08
1.14479e-08
1.19101e-08
1.23555e-08
1.2794e-08
1.32183e-08
1.36298e-08
1.40337e-08
1.44175e-08
1.47925e-08
1.5155e-08
1.55e-08
1.58358e-08
1.61539e-08
1.64578e-08
1.67521e-08
1.70232e-08
1.72839e-08
1.75308e-08
1.77567e-08
1.7972e-08
1.81691e-08
1.83485e-08
1.8517e-08
1.86624e-08
1.8794e-08
1.89122e-08
1.90065e-08
1.90929e-08
1.91528e-08
1.92028e-08
1.92317e-08
1.92457e-08
1.92429e-08
1.92206e-08
1.91853e-08
1.91275e-08
1.9059e-08
1.89664e-08
1.8864e-08
1.87378e-08
1.86008e-08
1.84424e-08
1.82706e-08
1.80808e-08
1.78743e-08
1.76546e-08
1.74134e-08
1.71647e-08
1.68895e-08
1.66128e-08
1.63041e-08
1.59954e-08
1.56594e-08
1.53182e-08
1.49572e-08
1.45846e-08
1.41997e-08
1.37969e-08
1.33892e-08
1.29575e-08
1.25258e-08
1.20688e-08
1.16094e-08
1.11329e-08
1.0647e-08
1.01513e-08
9.63969e-09
9.12434e-09
8.5875e-09
8.05065e-09
7.48856e-09
6.92569e-09
6.63355e-09
6.33803e-09
6.04251e-09
5.74699e-09
5.43808e-09
5.12662e-09
4.81516e-09
4.49851e-09
4.16854e-09
3.83857e-09
3.50603e-09
3.15472e-09
2.80342e-09
2.44183e-09
2.06715e-09
1.68591e-09
1.28778e-09
8.75882e-10
6.65736e-10
4.48159e-10
2.26832e-10
0
)


113
(
0
4.8829e-10
9.51419e-10
1.39053e-09
1.80971e-09
2.21095e-09
2.59423e-09
2.95894e-09
3.31084e-09
3.6517e-09
3.97467e-09
4.28746e-09
4.59225e-09
4.87986e-09
5.16083e-09
5.43224e-09
5.69136e-09
5.94491e-09
6.18628e-09
6.42025e-09
6.64764e-09
6.86292e-09
7.07348e-09
7.27443e-09
7.46733e-09
7.65545e-09
7.83154e-09
8.00269e-09
8.16672e-09
8.32129e-09
8.47104e-09
8.61156e-09
8.74499e-09
8.87367e-09
8.99106e-09
9.10352e-09
9.20946e-09
9.30572e-09
9.39719e-09
9.48036e-09
9.5557e-09
9.62615e-09
9.68651e-09
9.74085e-09
9.7894e-09
9.82765e-09
9.86254e-09
9.88612e-09
9.90549e-09
9.91593e-09
9.92005e-09
9.91704e-09
9.90582e-09
9.88911e-09
9.86285e-09
9.83209e-09
9.79109e-09
9.74591e-09
9.69054e-09
9.63059e-09
9.5613e-09
9.48628e-09
9.40331e-09
9.31298e-09
9.21675e-09
9.11087e-09
9.00154e-09
8.87993e-09
8.75769e-09
8.62013e-09
8.48257e-09
8.33142e-09
8.17767e-09
8.01354e-09
7.84332e-09
7.66617e-09
7.47905e-09
7.28895e-09
7.0843e-09
6.87965e-09
6.65832e-09
6.43534e-09
6.20001e-09
5.95773e-09
5.70768e-09
5.44495e-09
5.17894e-09
4.89436e-09
4.60977e-09
4.30244e-09
3.99441e-09
3.83088e-09
3.66434e-09
3.49781e-09
3.33127e-09
3.15367e-09
2.97395e-09
2.79423e-09
2.61071e-09
2.41741e-09
2.2241e-09
2.02917e-09
1.82233e-09
1.61548e-09
1.40303e-09
1.18343e-09
9.60722e-10
7.29994e-10
4.93441e-10
3.73413e-10
2.50505e-10
1.26229e-10
0
)


113
(
0
4.20756e-11
8.31392e-11
1.23141e-10
1.6218e-10
2.00285e-10
2.37388e-10
2.73356e-10
3.08482e-10
3.42864e-10
3.75948e-10
4.08235e-10
4.39895e-10
4.70113e-10
4.9974e-10
5.28516e-10
5.56139e-10
5.8323e-10
6.0913e-10
6.3428e-10
6.58764e-10
6.8199e-10
7.04717e-10
7.26424e-10
7.47264e-10
7.67589e-10
7.86604e-10
8.05078e-10
8.22773e-10
8.39428e-10
8.55553e-10
8.70662e-10
8.84993e-10
8.98801e-10
9.11372e-10
9.23405e-10
9.34725e-10
9.44991e-10
9.54738e-10
9.63585e-10
9.71587e-10
9.79063e-10
9.85455e-10
9.91201e-10
9.96328e-10
1.00036e-09
1.00403e-09
1.00649e-09
1.00851e-09
1.00959e-09
1.00999e-09
1.00964e-09
1.00841e-09
1.00661e-09
1.00379e-09
1.00049e-09
9.96102e-10
9.9127e-10
9.85351e-10
9.78942e-10
9.71532e-10
9.63509e-10
9.54627e-10
9.44952e-10
9.34637e-10
9.23277e-10
9.1154e-10
8.98465e-10
8.8532e-10
8.70498e-10
8.55677e-10
8.39363e-10
8.22764e-10
8.05028e-10
7.86624e-10
7.67464e-10
7.47218e-10
7.26651e-10
7.04519e-10
6.82388e-10
6.58502e-10
6.34442e-10
6.09128e-10
5.83108e-10
5.56335e-10
5.28336e-10
5.00039e-10
4.70059e-10
4.40078e-10
4.08198e-10
3.76261e-10
3.59572e-10
3.42656e-10
3.2574e-10
3.08824e-10
2.91159e-10
2.73352e-10
2.55544e-10
2.37508e-10
2.18883e-10
2.00259e-10
1.81548e-10
1.62202e-10
1.42856e-10
1.23243e-10
1.03289e-10
8.32012e-11
6.27673e-11
4.21013e-11
3.16991e-11
2.11888e-11
1.0629e-11
0
)

)


10
(

113
(
0
2.72753e-43
8.92196e-41
7.57327e-39
1.09972e-37
1.00014e-36
6.95713e-36
4.05563e-35
2.09359e-34
9.85646e-34
4.27698e-33
1.72094e-32
6.52115e-32
2.37268e-31
8.20017e-31
2.91037e-30
1.48348e-29
8.76412e-29
6.0531e-28
4.80151e-27
4.14917e-26
3.47097e-25
1.87275e-24
2.63867e-23
3.97382e-22
6.20935e-21
9.77056e-20
1.50697e-18
2.22144e-17
3.04894e-16
3.79427e-15
4.18709e-14
4.0555e-13
3.42301e-12
2.59689e-11
2.03074e-10
1.35708e-09
7.12432e-09
2.88051e-08
8.86078e-08
2.08151e-07
3.80497e-07
5.55523e-07
6.81376e-07
7.37107e-07
7.31679e-07
6.8752e-07
6.25993e-07
5.61626e-07
5.0174e-07
4.47542e-07
3.98462e-07
3.53298e-07
3.10972e-07
2.70695e-07
2.32505e-07
1.96226e-07
1.62076e-07
1.30277e-07
1.02365e-07
7.85157e-08
5.79562e-08
4.12564e-08
2.92994e-08
1.96714e-08
1.27566e-08
8.44733e-09
5.12026e-09
3.20427e-09
1.9454e-09
1.0675e-09
6.78245e-10
3.64132e-10
2.18014e-10
1.18361e-10
6.44353e-11
3.59556e-11
1.73226e-11
1.01754e-11
4.4968e-12
2.6942e-12
1.18873e-12
6.72404e-13
2.99804e-13
1.55823e-13
7.01169e-14
3.13242e-14
1.43543e-14
4.65876e-15
2.40505e-15
7.31039e-16
5.08929e-16
2.86819e-16
1.29339e-16
8.87738e-17
4.82088e-17
1.87284e-17
1.21652e-17
5.60206e-18
2.08388e-18
1.15958e-18
2.66131e-19
1.53522e-19
4.0914e-20
1.39398e-20
1.9282e-21
7.28099e-22
8.64283e-23
6.94726e-24
9.41976e-25
1.92706e-25
7.72434e-27
0
)


113
(
0
1.60732e-24
5.01448e-23
1.21045e-21
1.28643e-20
9.43432e-20
7.29687e-19
4.87903e-18
2.73973e-17
1.39969e-16
6.74313e-16
2.76837e-15
1.05499e-14
3.62267e-14
1.09469e-13
3.178e-13
9.73823e-13
2.73441e-12
7.11854e-12
1.73009e-11
3.94473e-11
8.478e-11
1.73055e-10
3.6284e-10
7.19042e-10
1.35141e-09
2.42935e-09
4.20551e-09
7.05558e-09
1.14357e-08
1.78418e-08
2.68949e-08
3.92626e-08
5.56615e-08
7.66266e-08
1.02621e-07
1.33516e-07
1.6889e-07
2.07839e-07
2.49068e-07
2.91022e-07
3.31588e-07
3.69128e-07
4.01416e-07
4.27091e-07
4.4511e-07
4.54702e-07
4.55912e-07
4.48742e-07
4.3415e-07
4.1351e-07
3.88037e-07
3.59116e-07
3.27979e-07
2.95656e-07
2.63304e-07
2.31924e-07
2.01877e-07
1.73397e-07
1.47498e-07
1.24154e-07
1.0287e-07
8.39964e-08
6.82933e-08
5.43277e-08
4.24694e-08
3.31922e-08
2.50726e-08
1.88792e-08
1.39985e-08
9.87878e-09
7.25133e-09
4.95203e-09
3.45712e-09
2.31028e-09
1.50599e-09
9.92757e-10
5.92157e-10
3.89748e-10
2.15286e-10
1.39373e-10
7.4267e-11
4.51338e-11
2.33157e-11
1.31335e-11
6.71343e-12
3.32223e-12
1.69554e-12
6.57027e-13
3.68155e-13
1.45585e-13
1.05733e-13
6.58816e-14
3.65379e-14
2.62034e-14
1.5869e-14
8.10507e-15
5.65583e-15
3.2066e-15
1.72642e-15
1.07175e-15
4.35993e-16
2.79116e-16
1.2224e-16
6.39796e-17
2.30842e-17
1.1242e-17
3.7281e-18
1.07386e-18
4.58736e-19
1.99068e-19
5.81236e-20
0
)


113
(
0
1.17051e-12
4.01858e-12
1.03514e-11
2.20669e-11
4.25819e-11
7.7064e-11
1.33257e-10
2.23403e-10
3.58341e-10
5.56793e-10
8.35774e-10
1.22406e-09
1.75917e-09
2.47468e-09
3.41082e-09
4.68219e-09
6.31215e-09
8.34615e-09
1.08428e-08
1.38636e-08
1.74777e-08
2.18125e-08
2.71038e-08
3.32671e-08
4.02404e-08
4.80769e-08
5.68135e-08
6.64968e-08
7.71807e-08
8.88523e-08
1.01427e-07
1.14808e-07
1.28761e-07
1.42914e-07
1.57302e-07
1.71827e-07
1.86236e-07
2.00326e-07
2.13838e-07
2.2649e-07
2.38097e-07
2.48417e-07
2.57404e-07
2.64793e-07
2.70432e-07
2.74297e-07
2.76225e-07
2.76352e-07
2.74662e-07
2.71098e-07
2.65671e-07
2.58602e-07
2.50112e-07
2.40369e-07
2.29304e-07
2.17279e-07
2.04604e-07
1.91458e-07
1.77958e-07
1.64369e-07
1.50805e-07
1.3735e-07
1.24338e-07
1.11698e-07
9.95634e-08
8.83335e-08
7.76023e-08
6.78116e-08
5.88734e-08
5.04294e-08
4.32888e-08
3.65316e-08
3.0763e-08
2.56127e-08
2.10711e-08
1.73308e-08
1.39007e-08
1.13038e-08
8.84658e-09
7.07407e-09
5.43177e-09
4.22296e-09
3.17626e-09
2.38741e-09
1.7609e-09
1.26508e-09
9.18632e-10
6.21971e-10
4.45602e-10
2.92855e-10
2.43534e-10
1.94212e-10
1.52618e-10
1.25003e-10
9.73877e-11
7.39835e-11
5.92853e-11
4.45872e-11
3.35202e-11
2.55465e-11
1.77115e-11
1.33858e-11
9.06022e-12
6.37935e-12
3.9923e-12
2.61129e-12
1.5081e-12
7.71364e-13
4.98309e-13
3.00558e-13
1.38399e-13
0
)


113
(
0
2.36365e-10
5.35854e-10
9.45631e-10
1.47373e-09
2.14025e-09
2.96723e-09
3.97632e-09
5.18821e-09
6.62213e-09
8.29585e-09
1.02259e-08
1.24286e-08
1.49163e-08
1.77028e-08
2.08874e-08
2.44181e-08
2.81562e-08
3.22694e-08
3.67566e-08
4.15537e-08
4.66586e-08
5.21275e-08
5.80031e-08
6.40248e-08
7.0164e-08
7.65572e-08
8.33672e-08
9.03534e-08
9.72336e-08
1.04175e-07
1.11038e-07
1.17795e-07
1.24718e-07
1.31576e-07
1.38293e-07
1.44716e-07
1.50623e-07
1.5626e-07
1.61558e-07
1.66412e-07
1.70819e-07
1.74663e-07
1.77957e-07
1.80725e-07
1.82924e-07
1.84502e-07
1.85353e-07
1.85533e-07
1.85325e-07
1.84417e-07
1.82775e-07
1.80493e-07
1.77672e-07
1.74385e-07
1.70432e-07
1.65916e-07
1.61081e-07
1.56011e-07
1.5053e-07
1.44676e-07
1.38537e-07
1.32077e-07
1.25457e-07
1.18813e-07
1.12167e-07
1.05507e-07
9.88387e-08
9.21547e-08
8.55908e-08
7.90966e-08
7.2967e-08
6.69336e-08
6.11436e-08
5.5541e-08
5.01229e-08
4.51116e-08
4.02578e-08
3.60094e-08
3.18622e-08
2.82091e-08
2.46647e-08
2.1482e-08
1.84809e-08
1.5769e-08
1.3347e-08
1.11585e-08
9.3553e-09
7.68062e-09
6.32552e-09
5.06296e-09
4.5393e-09
4.01565e-09
3.53583e-09
3.13532e-09
2.7348e-09
2.3658e-09
2.06197e-09
1.75813e-09
1.49425e-09
1.26439e-09
1.03664e-09
8.62169e-10
6.87701e-10
5.47904e-10
4.14363e-10
3.09703e-10
2.1525e-10
1.34797e-10
9.85502e-11
6.52861e-11
3.29022e-11
0
)


113
(
0
1.28251e-09
2.5565e-09
3.95647e-09
5.50745e-09
7.22693e-09
9.12336e-09
1.11979e-08
1.3448e-08
1.58688e-08
1.84548e-08
2.12003e-08
2.40991e-08
2.71451e-08
3.03316e-08
3.36604e-08
3.71277e-08
4.07077e-08
4.43901e-08
4.81643e-08
5.2019e-08
5.59422e-08
5.9921e-08
6.39447e-08
6.80286e-08
7.21117e-08
7.63702e-08
8.04517e-08
8.44425e-08
8.85423e-08
9.22931e-08
9.61093e-08
9.98608e-08
1.03203e-07
1.06695e-07
1.10077e-07
1.13019e-07
1.15602e-07
1.18153e-07
1.20709e-07
1.23221e-07
1.25001e-07
1.2669e-07
1.28166e-07
1.29431e-07
1.3039e-07
1.31119e-07
1.31591e-07
1.31775e-07
1.31663e-07
1.31447e-07
1.3084e-07
1.29925e-07
1.28768e-07
1.27299e-07
1.25692e-07
1.23917e-07
1.21901e-07
1.19609e-07
1.16904e-07
1.14233e-07
1.1147e-07
1.08502e-07
1.05289e-07
1.02029e-07
9.87466e-08
9.48863e-08
9.09355e-08
8.70362e-08
8.35666e-08
8.0346e-08
7.65423e-08
7.24634e-08
6.76368e-08
6.32488e-08
5.92925e-08
5.58495e-08
5.2605e-08
4.90295e-08
4.54335e-08
4.19915e-08
3.85956e-08
3.53529e-08
3.2197e-08
2.91792e-08
2.62958e-08
2.35205e-08
2.09341e-08
1.84107e-08
1.61377e-08
1.39395e-08
1.29274e-08
1.19153e-08
1.09448e-08
1.00497e-08
9.15456e-09
8.29475e-09
7.50797e-09
6.7212e-09
5.98711e-09
5.29791e-09
4.61192e-09
4.00723e-09
3.40254e-09
2.85633e-09
2.32069e-09
1.83462e-09
1.36405e-09
9.12204e-10
6.89913e-10
4.66509e-10
2.38384e-10
0
)


113
(
0
2.27168e-09
4.36064e-09
6.41213e-09
8.48844e-09
1.06177e-08
1.28144e-08
1.50829e-08
1.74215e-08
1.98252e-08
2.22872e-08
2.48005e-08
2.73579e-08
2.99526e-08
3.25777e-08
3.5228e-08
3.78955e-08
4.0571e-08
4.32483e-08
4.59211e-08
4.85832e-08
5.12284e-08
5.38503e-08
5.64369e-08
5.89862e-08
6.1492e-08
6.39486e-08
6.635e-08
6.86904e-08
7.0964e-08
7.31654e-08
7.52892e-08
7.73301e-08
7.92277e-08
7.99885e-08
8.17245e-08
8.33607e-08
8.48941e-08
8.63217e-08
8.76403e-08
8.88477e-08
8.9938e-08
9.09109e-08
9.2072e-08
9.49299e-08
9.58335e-08
9.64832e-08
9.70137e-08
9.7391e-08
9.74952e-08
9.74595e-08
9.72242e-08
9.67434e-08
9.61362e-08
9.56259e-08
9.50719e-08
9.25529e-08
9.00099e-08
8.81664e-08
8.69153e-08
8.55496e-08
8.4096e-08
8.25431e-08
8.08639e-08
7.91148e-08
7.72807e-08
7.56517e-08
7.39261e-08
7.1814e-08
6.96359e-08
6.74195e-08
6.51148e-08
6.27871e-08
6.04016e-08
5.79853e-08
5.55385e-08
5.30602e-08
5.05697e-08
4.80567e-08
4.55411e-08
4.30207e-08
4.05037e-08
3.79981e-08
3.55058e-08
3.30347e-08
3.05931e-08
2.81754e-08
2.58107e-08
2.34637e-08
2.12021e-08
1.89702e-08
1.78889e-08
1.68076e-08
1.57453e-08
1.47171e-08
1.36888e-08
1.2678e-08
1.17033e-08
1.07286e-08
9.78063e-09
8.85539e-09
7.93169e-09
7.04661e-09
6.16154e-09
5.29836e-09
4.43904e-09
3.58751e-09
2.73089e-09
1.86101e-09
1.41811e-09
9.60957e-10
4.90381e-10
0
)


113
(
0
2.46704e-09
4.71339e-09
6.8233e-09
8.85774e-09
1.08437e-08
1.27993e-08
1.47369e-08
1.66638e-08
1.85836e-08
2.04977e-08
2.2406e-08
2.43074e-08
2.62004e-08
2.8083e-08
2.99517e-08
3.18024e-08
3.36342e-08
3.54445e-08
3.72309e-08
3.89909e-08
4.07221e-08
4.24219e-08
4.35496e-08
4.50499e-08
4.65738e-08
4.80524e-08
4.94838e-08
5.08657e-08
5.2196e-08
5.34727e-08
5.4694e-08
5.58581e-08
5.69633e-08
5.8008e-08
5.89894e-08
5.99076e-08
6.07619e-08
6.15514e-08
6.22751e-08
6.29321e-08
6.35196e-08
6.40379e-08
6.44874e-08
6.48678e-08
6.5179e-08
6.54209e-08
6.55935e-08
6.56919e-08
6.57172e-08
6.5673e-08
6.55594e-08
6.53777e-08
6.51296e-08
6.4817e-08
6.44225e-08
6.39604e-08
6.34373e-08
6.2856e-08
6.21973e-08
6.14715e-08
6.06934e-08
5.98558e-08
5.89399e-08
5.79792e-08
5.69638e-08
5.58747e-08
5.47497e-08
5.35611e-08
5.23199e-08
5.10481e-08
4.96992e-08
4.83283e-08
4.69006e-08
4.54373e-08
4.3939e-08
4.2394e-08
4.0831e-08
3.94584e-08
3.80778e-08
3.63682e-08
3.46509e-08
3.29075e-08
3.11545e-08
2.93863e-08
2.76093e-08
2.58253e-08
2.4036e-08
2.22451e-08
2.04544e-08
1.86652e-08
1.77723e-08
1.68795e-08
1.59876e-08
1.50974e-08
1.42072e-08
1.33171e-08
1.24272e-08
1.15372e-08
1.06444e-08
9.74908e-09
8.85326e-09
7.94421e-09
7.03516e-09
6.1058e-09
5.17265e-09
4.20635e-09
3.21946e-09
2.19822e-09
1.67378e-09
1.13127e-09
5.74769e-10
0
)


113
(
0
1.95855e-09
3.7699e-09
5.46133e-09
7.06593e-09
8.5969e-09
1.0065e-08
1.14795e-08
1.28483e-08
1.41771e-08
1.54704e-08
1.67315e-08
1.79628e-08
1.91658e-08
2.03418e-08
2.14897e-08
2.26085e-08
2.37016e-08
2.47689e-08
2.58102e-08
2.68252e-08
2.78134e-08
2.87742e-08
2.97026e-08
3.06027e-08
3.14737e-08
3.2315e-08
3.31259e-08
3.39059e-08
3.46542e-08
3.53702e-08
3.60534e-08
3.67031e-08
3.73189e-08
3.79001e-08
3.84456e-08
3.89558e-08
3.94305e-08
3.98695e-08
4.02724e-08
4.0639e-08
4.09679e-08
4.12594e-08
4.1514e-08
4.17315e-08
4.19119e-08
4.20553e-08
4.21617e-08
4.22285e-08
4.22562e-08
4.22469e-08
4.22003e-08
4.21172e-08
4.19984e-08
4.18448e-08
4.16468e-08
4.1412e-08
4.11437e-08
4.08435e-08
4.05003e-08
4.01197e-08
3.97095e-08
3.92657e-08
3.87768e-08
3.8262e-08
3.77151e-08
3.71244e-08
3.6512e-08
3.58609e-08
3.51769e-08
3.44738e-08
3.37209e-08
3.29532e-08
3.21475e-08
3.13166e-08
3.0461e-08
2.95703e-08
2.86662e-08
2.77194e-08
2.67649e-08
2.57688e-08
2.47628e-08
2.37236e-08
2.26684e-08
2.15879e-08
2.04851e-08
1.93645e-08
1.8214e-08
1.70537e-08
1.58531e-08
1.46394e-08
1.40174e-08
1.33953e-08
1.27647e-08
1.21188e-08
1.14729e-08
1.08182e-08
1.01453e-08
9.47234e-09
8.78276e-09
8.07899e-09
7.37391e-09
6.63544e-09
5.89697e-09
5.12639e-09
4.34993e-09
3.53509e-09
2.70119e-09
1.83755e-09
1.39491e-09
9.39615e-10
4.75331e-10
0
)


113
(
0
1.09102e-09
2.12397e-09
3.10223e-09
4.03571e-09
4.92696e-09
5.77844e-09
6.59299e-09
7.37348e-09
8.12255e-09
8.84249e-09
9.53525e-09
1.02025e-08
1.08455e-08
1.14655e-08
1.2062e-08
1.26348e-08
1.31874e-08
1.37203e-08
1.42343e-08
1.47295e-08
1.52065e-08
1.56654e-08
1.6104e-08
1.65254e-08
1.69298e-08
1.73173e-08
1.76882e-08
1.80424e-08
1.83801e-08
1.87014e-08
1.90063e-08
1.92948e-08
1.95671e-08
1.98232e-08
2.00627e-08
2.02861e-08
2.04935e-08
2.06849e-08
2.08605e-08
2.10201e-08
2.11634e-08
2.12906e-08
2.14019e-08
2.14975e-08
2.15772e-08
2.16413e-08
2.16897e-08
2.17215e-08
2.17368e-08
2.17365e-08
2.17205e-08
2.16891e-08
2.16426e-08
2.15813e-08
2.15013e-08
2.14055e-08
2.12953e-08
2.11714e-08
2.1029e-08
2.08701e-08
2.06982e-08
2.05114e-08
2.03043e-08
2.00854e-08
1.98519e-08
1.95978e-08
1.93335e-08
1.90505e-08
1.87513e-08
1.84426e-08
1.81083e-08
1.77662e-08
1.74036e-08
1.70267e-08
1.66358e-08
1.62239e-08
1.58038e-08
1.53562e-08
1.49035e-08
1.44217e-08
1.39323e-08
1.34177e-08
1.28898e-08
1.23409e-08
1.1772e-08
1.11871e-08
1.05737e-08
9.95083e-09
9.28829e-09
8.61299e-09
8.26046e-09
7.90792e-09
7.54751e-09
7.17286e-09
6.79821e-09
6.41609e-09
6.01851e-09
5.62094e-09
5.21076e-09
4.78986e-09
4.36807e-09
3.92405e-09
3.48003e-09
3.01722e-09
2.55098e-09
2.06484e-09
1.5698e-09
1.06135e-09
8.02515e-10
5.38627e-10
2.71332e-10
0
)


113
(
0
9.22433e-11
1.82228e-10
2.69865e-10
3.55407e-10
4.38814e-10
5.20052e-10
5.99126e-10
6.76063e-10
7.50902e-10
8.23684e-10
8.94447e-10
9.63225e-10
1.03004e-09
1.09493e-09
1.15776e-09
1.21845e-09
1.27726e-09
1.33421e-09
1.38929e-09
1.44253e-09
1.49393e-09
1.5435e-09
1.59095e-09
1.63661e-09
1.68049e-09
1.72257e-09
1.76287e-09
1.8014e-09
1.83816e-09
1.87315e-09
1.90638e-09
1.93785e-09
1.96758e-09
1.99555e-09
2.02175e-09
2.04622e-09
2.06897e-09
2.09003e-09
2.10938e-09
2.12704e-09
2.14296e-09
2.15717e-09
2.16969e-09
2.18054e-09
2.18972e-09
2.19725e-09
2.20312e-09
2.20722e-09
2.20959e-09
2.2103e-09
2.20936e-09
2.20678e-09
2.2026e-09
2.19686e-09
2.18911e-09
2.17968e-09
2.16871e-09
2.15627e-09
2.14183e-09
2.12561e-09
2.10799e-09
2.08875e-09
2.06729e-09
2.04453e-09
2.02017e-09
1.99353e-09
1.96576e-09
1.93592e-09
1.90426e-09
1.87155e-09
1.83597e-09
1.79951e-09
1.76075e-09
1.7204e-09
1.67847e-09
1.6342e-09
1.58903e-09
1.54081e-09
1.49203e-09
1.4401e-09
1.38737e-09
1.33197e-09
1.27521e-09
1.2163e-09
1.15544e-09
1.093e-09
1.02794e-09
9.62004e-10
8.92641e-10
8.22257e-10
7.85877e-10
7.49496e-10
7.12541e-10
6.74544e-10
6.36547e-10
5.98053e-10
5.58532e-10
5.1901e-10
4.78729e-10
4.378e-10
3.96823e-10
3.54629e-10
3.12436e-10
2.69304e-10
2.26003e-10
1.81788e-10
1.37193e-10
9.20371e-11
6.92739e-11
4.63162e-11
2.32315e-11
0
)

)


10
(

113
(
0
5.09988e-39
1.57385e-36
5.55787e-35
8.08876e-34
8.01116e-33
6.10052e-32
3.87245e-31
2.15532e-30
1.08997e-29
5.28754e-29
2.45742e-28
1.078e-27
4.16e-27
1.686e-26
1.038e-25
6.93e-25
4.42769e-24
2.06333e-23
1.10967e-22
9.57692e-22
8.415e-21
7.3e-20
5.14462e-19
2.14677e-18
2.18775e-17
2.11333e-16
1.85367e-15
1.38775e-14
7.705e-14
4.1155e-13
3.46818e-12
2.42467e-11
1.4115e-10
7.10545e-10
3.22455e-09
1.21755e-08
3.85455e-08
1.04e-07
2.51273e-07
4.82818e-07
7.822e-07
1.03773e-06
1.215e-06
1.26636e-06
1.21545e-06
1.09273e-06
9.39333e-07
7.88833e-07
6.43e-07
5.26077e-07
4.16333e-07
3.23e-07
2.47286e-07
1.88714e-07
1.41e-07
1.01457e-07
7.01e-08
5.03e-08
3.45875e-08
2.29625e-08
1.57813e-08
1.0005e-08
6.355e-09
4.06588e-09
2.36e-09
1.60333e-09
9.31444e-10
5.98667e-10
3.43889e-10
2.06111e-10
1.20305e-10
6.91474e-11
4.06474e-11
2.18579e-11
1.3172e-11
7.012e-12
4.176e-12
2.171e-12
1.2712e-12
6.477e-13
3.73e-13
1.855e-13
1.02358e-13
4.53053e-14
2.61225e-14
1.11475e-14
5.875e-15
2.00572e-15
1.06294e-15
3.43653e-16
2.44741e-16
1.45829e-16
6.31169e-17
4.52013e-17
2.72856e-17
9.37e-18
6.61667e-18
3.86333e-18
1.11e-18
6.9375e-19
2.775e-19
8.33455e-20
3.72545e-20
7.63733e-21
2.73067e-21
4.64871e-22
5.143e-23
5.08e-24
2.19812e-24
2.584e-25
1.585e-26
0
)


113
(
0
1.2421e-23
3.80399e-22
5.66613e-21
5.31148e-20
3.9841e-19
2.89997e-18
1.88229e-17
1.08748e-16
5.66883e-16
2.63018e-15
1.04547e-14
3.5011e-14
1.05279e-13
3.38737e-13
1.06992e-12
3.10141e-12
8.23945e-12
1.84482e-11
4.2938e-11
1.04779e-10
2.28515e-10
4.67854e-10
9.01804e-10
1.65157e-09
3.10306e-09
5.58841e-09
9.55956e-09
1.55895e-08
2.4379e-08
3.73683e-08
5.57137e-08
8.05681e-08
1.12303e-07
1.51367e-07
1.9856e-07
2.53127e-07
3.13994e-07
3.79403e-07
4.46484e-07
5.11581e-07
5.71692e-07
6.2252e-07
6.62533e-07
6.87946e-07
6.98435e-07
6.94051e-07
6.75184e-07
6.43884e-07
6.01623e-07
5.49422e-07
4.93505e-07
4.3559e-07
3.77748e-07
3.21814e-07
2.70522e-07
2.23284e-07
1.80389e-07
1.45675e-07
1.15114e-07
8.8704e-08
6.8963e-08
5.17333e-08
3.86342e-08
2.87337e-08
2.02041e-08
1.50285e-08
1.03004e-08
7.36235e-09
4.96446e-09
3.37675e-09
2.26113e-09
1.46023e-09
9.59009e-10
5.86219e-10
3.84403e-10
2.2533e-10
1.43559e-10
8.11139e-11
5.03365e-11
2.74762e-11
1.65746e-11
8.66264e-12
5.00576e-12
2.41264e-12
1.43429e-12
6.3535e-13
3.55438e-13
1.48925e-13
8.3972e-14
3.33157e-14
2.46665e-14
1.60173e-14
8.66478e-15
6.49929e-15
4.3338e-15
2.16832e-15
1.5964e-15
1.02449e-15
4.5258e-16
3.10697e-16
1.68813e-16
8.84941e-17
4.92186e-17
2.1292e-17