/*--------------------------------*- C++ -*----------------------------------*\
| =========                 |                                                 |
| \\      /  F ield         | OpenFOAM: The Open Source CFD Toolbox           |
|  \\    /   O peration     | Version:  2.3.0                                 |
|   \\  /    A nd           | Web:      www.OpenFOAM.org                      |
|    \\/     M anipulation  |                                                 |
\*---------------------------------------------------------------------------*/
FoamFile
{
    version     2.0;
    format      ascii;
    class       dictionary;
    location    "constant";
    object      C;
}
// * * * * * * * * * * * * * * * * * * * * * * * * * * * * * * * * * * * * * //

C_table
13
(

10
(

113
(
0
8.47375e-35
2.44718e-34
1.4183e-33
3.20246e-33
8.36167e-33
1.16394e-32
2.83058e-32
3.58807e-32
3.25411e-32
1.59848e-32
1.78962e-31
4.83e-31
5.80187e-30
6.65081e-29
2.06918e-28
4.05095e-27
3.85882e-26
2.1846e-25
3.27718e-24
8.88883e-24
1.20057e-22
6.98741e-22
2.57467e-21
1.54772e-20
3.68807e-20
1.70918e-19
5.53043e-19
1.29217e-18
6.90415e-18
9.53419e-17
4.90779e-16
2.51812e-14
1.16618e-13
2.7175e-12
4.08861e-11
1.26203e-10
1.16707e-09
3.80158e-09
1.02889e-08
1.93758e-08
2.83776e-08
2.81913e-08
2.44353e-08
1.72497e-08
1.19583e-08
7.3248e-09
5.09575e-09
3.26865e-09
2.29568e-09
1.56284e-09
1.10081e-09
7.76937e-10
5.45167e-10
3.91609e-10
2.74858e-10
1.99525e-10
1.41109e-10
1.032e-10
7.45043e-11
5.46248e-11
4.01486e-11
2.93364e-11
2.19065e-11
1.5773e-11
1.17544e-11
8.13862e-12
5.95055e-12
3.80509e-12
2.68236e-12
1.55964e-12
9.82425e-13
5.09122e-13
2.52214e-13
1.22394e-13
3.80155e-14
1.90289e-14
3.03441e-15
1.64857e-15
2.62726e-16
8.44343e-17
2.55708e-17
3.17193e-18
1.28432e-18
9.49352e-20
4.47648e-20
1.97573e-21
1.01394e-21
5.21537e-23
1.25216e-23
1.40981e-24
6.16028e-26
4.21327e-26
2.26627e-26
3.19261e-27
5.94745e-29
3.81346e-29
1.67947e-29
1.34316e-30
1.03304e-30
7.22911e-31
4.54791e-31
4.94716e-31
5.34642e-31
4.6022e-31
2.40267e-31
8.83123e-32
1.11214e-31
8.17571e-32
5.38057e-32
2.88771e-32
2.30857e-32
0
)


113
(
0
1.88625e-25
7.61091e-24
1.7825e-22
1.71527e-21
1.50706e-20
8.10707e-20
6.86935e-19
4.27078e-18
1.42981e-17
7.42284e-17
3.68321e-16
8.46399e-16
4.0048e-15
1.32703e-14
3.13242e-14
1.14037e-13
2.60441e-13
6.3889e-13
1.64033e-12
3.19423e-12
7.80522e-12
1.51542e-11
2.93292e-11
5.72822e-11
9.39381e-11
1.77279e-10
2.94891e-10
4.61823e-10
7.36657e-10
1.07968e-09
1.57777e-09
2.20819e-09
2.92789e-09
3.8757e-09
4.89055e-09
5.99425e-09
7.1274e-09
8.22702e-09
9.22187e-09
9.99615e-09
1.06194e-08
1.0862e-08
1.08509e-08
1.05961e-08
9.96887e-09
9.24259e-09
8.28904e-09
7.29891e-09
6.23105e-09
5.2174e-09
4.26489e-09
3.43084e-09
2.67576e-09
2.08028e-09
1.55992e-09
1.18092e-09
8.59663e-10
6.33156e-10
4.49218e-10
3.21884e-10
2.29243e-10
1.61257e-10
1.16031e-10
7.9714e-11
5.79321e-11
3.87216e-11
2.86276e-11
1.875e-11
1.4065e-11
9.38012e-12
6.80961e-12
4.64185e-12
3.2087e-12
2.20699e-12
1.43416e-12
9.90669e-13
5.91665e-13
4.09848e-13
2.2803e-13
1.51293e-13
8.49478e-14
4.80078e-14
2.76082e-14
1.29222e-14
7.55843e-15
2.82513e-15
1.66436e-15
5.03596e-16
2.7958e-16
8.45355e-17
5.04185e-17
3.63243e-17
2.223e-17
8.13567e-18
4.65052e-18
3.18617e-18
1.72181e-18
6.11852e-19
4.13208e-19
2.14565e-19
3.81688e-20
2.49229e-20
1.1677e-20
3.47073e-21
1.67853e-21
3.26458e-22
1.06125e-22
1.65736e-23
6.08656e-24
2.52951e-24
5.84009e-25
0
)


113
(
0
6.16303e-14
2.07922e-13
5.23606e-13
1.10438e-12
2.08404e-12
3.71552e-12
6.91266e-12
1.13282e-11
1.69567e-11
2.61333e-11
3.91052e-11
5.5059e-11
8.08509e-11
1.13014e-10
1.54344e-10
2.02653e-10
2.59665e-10
3.50646e-10
4.40922e-10
5.30572e-10
6.81495e-10
8.46038e-10
1.02997e-09
1.22489e-09
1.42712e-09
1.68542e-09
1.95221e-09
2.23124e-09
2.54107e-09
2.85947e-09
3.1812e-09
3.51426e-09
3.85377e-09
4.1545e-09
4.45025e-09
4.7394e-09
4.98764e-09
5.21632e-09
5.41163e-09
5.56149e-09
5.68225e-09
5.73953e-09
5.76161e-09
5.74987e-09
5.66535e-09
5.56135e-09
5.41201e-09
5.2344e-09
4.9967e-09
4.74395e-09
4.47421e-09
4.17851e-09
3.8655e-09
3.55339e-09
3.24172e-09
2.96758e-09
2.70876e-09
2.41531e-09
2.1063e-09
1.85437e-09
1.63743e-09
1.42496e-09
1.2166e-09
1.02965e-09
8.77615e-10
7.33428e-10
6.17063e-10
5.02042e-10
4.19297e-10
3.36551e-10
2.73952e-10
2.15191e-10
1.71473e-10
1.3659e-10
1.06083e-10
8.18738e-11
5.95825e-11
4.66569e-11
3.37313e-11
2.59042e-11
1.85812e-11
1.3561e-11
9.83604e-12
6.81232e-12
4.93274e-12
3.19876e-12
2.2898e-12
1.38084e-12
9.63749e-13
5.61877e-13
4.5125e-13
3.69142e-13
2.87035e-13
2.04927e-13
1.63685e-13
1.30228e-13
9.67698e-14
6.86482e-14
5.42484e-14
3.98487e-14
2.64124e-14
2.00419e-14
1.36714e-14
8.83109e-15
5.93824e-15
3.4559e-15
2.02919e-15
1.02407e-15
6.41411e-16
3.88811e-16
1.76271e-16
0
)


113
(
0
7.97328e-12
1.7899e-11
3.12089e-11
4.81697e-11
6.90872e-11
9.47264e-11
1.26469e-10
1.63241e-10
2.04628e-10
2.54863e-10
3.1107e-10
3.71971e-10
4.48937e-10
5.35718e-10
6.36624e-10
7.29631e-10
8.25292e-10
9.43554e-10
1.06531e-09
1.19015e-09
1.33819e-09
1.48621e-09
1.62686e-09
1.73525e-09
1.82754e-09
2.01993e-09
2.18435e-09
2.30851e-09
2.46075e-09
2.61406e-09
2.74504e-09
2.88156e-09
3.02112e-09
3.13502e-09
3.24949e-09
3.36469e-09
3.44555e-09
3.51768e-09
3.58262e-09
3.63661e-09
3.68286e-09
3.70838e-09
3.72362e-09
3.72897e-09
3.71272e-09
3.69058e-09
3.65417e-09
3.60561e-09
3.53125e-09
3.45198e-09
3.36719e-09
3.25613e-09
3.12755e-09
3.04197e-09
2.97662e-09
2.83169e-09
2.65424e-09
2.50601e-09
2.37091e-09
2.23971e-09
2.11092e-09
1.98334e-09
1.85688e-09
1.73061e-09
1.60468e-09
1.47796e-09
1.34846e-09
1.22105e-09
1.1438e-09
1.06656e-09
9.48681e-10
8.23063e-10
7.21446e-10
6.33923e-10
5.64663e-10
5.21682e-10
4.75913e-10
4.16537e-10
3.5716e-10
2.99379e-10
2.41756e-10
1.98189e-10
1.62529e-10
1.33259e-10
1.14412e-10
9.60751e-11
8.06215e-11
6.51678e-11
5.29382e-11
4.08084e-11
3.62142e-11
3.20844e-11
2.79547e-11
2.3825e-11
2.08336e-11
1.80592e-11
1.52847e-11
1.2767e-11
1.09095e-11
9.05204e-12
7.26715e-12
6.01446e-12
4.76178e-12
3.68019e-12
2.81638e-12
2.02002e-12
1.3971e-12
8.63951e-13
6.2301e-13
4.10943e-13
2.05184e-13
0
)


113
(
0
3.40651e-11
6.7593e-11
1.03898e-10
1.43719e-10
1.87234e-10
2.348e-10
2.86867e-10
3.42157e-10
4.0026e-10
4.63021e-10
5.28439e-10
5.95945e-10
6.67783e-10
7.41168e-10
8.16777e-10
8.94861e-10
9.73957e-10
1.05497e-09
1.13674e-09
1.21917e-09
1.30206e-09
1.38487e-09
1.46733e-09
1.55323e-09
1.64147e-09
1.74948e-09
1.84525e-09
1.92341e-09
2.00814e-09
2.08305e-09
2.11481e-09
2.15924e-09
2.21285e-09
2.3193e-09
2.39443e-09
2.42807e-09
2.46372e-09
2.49876e-09
2.5312e-09
2.55774e-09
2.58024e-09
2.59263e-09
2.60221e-09
2.60908e-09
2.60788e-09
2.60367e-09
2.58746e-09
2.56936e-09
2.54722e-09
2.51517e-09
2.47196e-09
2.45197e-09
2.44748e-09
2.3818e-09
2.28731e-09
2.23599e-09
2.20231e-09
2.14322e-09
2.07272e-09
2.00591e-09
1.94135e-09
1.89737e-09
1.87239e-09
1.80036e-09
1.65158e-09
1.51901e-09
1.44392e-09
1.37135e-09
1.35923e-09
1.3471e-09
1.19252e-09
1.0108e-09
9.26637e-10
8.99775e-10
8.67184e-10
8.26348e-10
7.8217e-10
7.21674e-10
6.61179e-10
6.05665e-10
5.50644e-10
4.99385e-10
4.50241e-10
4.03387e-10
3.6027e-10
3.18043e-10
2.80862e-10
2.43682e-10
2.11957e-10
1.80402e-10
1.66571e-10
1.53355e-10
1.40139e-10
1.26923e-10
1.15595e-10
1.04626e-10
9.36573e-11
8.32227e-11
7.41616e-11
6.51004e-11
5.62253e-11
4.87145e-11
4.12037e-11
3.42022e-11
2.78491e-11
2.17021e-11
1.60853e-11
1.0689e-11
8.049e-12
5.4249e-12
2.76248e-12
0
)


113
(
0
5.2673e-11
1.00892e-10
1.47797e-10
1.94911e-10
2.42801e-10
2.9184e-10
3.42288e-10
3.93717e-10
4.45982e-10
4.99478e-10
5.53523e-10
6.08001e-10
6.63064e-10
7.18193e-10
7.7342e-10
8.28442e-10
8.83299e-10
9.37601e-10
9.9134e-10
1.04458e-09
1.09653e-09
1.14787e-09
1.19789e-09
1.24656e-09
1.29442e-09
1.33993e-09
1.38433e-09
1.42715e-09
1.46763e-09
1.50686e-09
1.54361e-09
1.5783e-09
1.61131e-09
1.62561e-09
1.64485e-09
1.67065e-09
1.69329e-09
1.71435e-09
1.73263e-09
1.74826e-09
1.76224e-09
1.77278e-09
1.81208e-09
1.87901e-09
1.90582e-09
1.92191e-09
1.91298e-09
1.90466e-09
1.89767e-09
1.87974e-09
1.84949e-09
1.82692e-09
1.80946e-09
1.80212e-09
1.79954e-09
1.76043e-09
1.70639e-09
1.6681e-09
1.63687e-09
1.60333e-09
1.56837e-09
1.53168e-09
1.49339e-09
1.45401e-09
1.41285e-09
1.36979e-09
1.31998e-09
1.27037e-09
1.22527e-09
1.18018e-09
1.13412e-09
1.08788e-09
1.04125e-09
9.94393e-10
9.475e-10
9.00556e-10
8.53687e-10
8.07185e-10
7.60682e-10
7.15051e-10
6.69506e-10
6.24885e-10
5.80784e-10
5.37399e-10
4.95181e-10
4.53303e-10
4.13348e-10
3.73393e-10
3.3592e-10
2.98525e-10
2.80866e-10
2.63535e-10
2.46204e-10
2.28873e-10
2.12689e-10
1.96724e-10
1.80759e-10
1.65143e-10
1.50427e-10
1.35711e-10
1.21114e-10
1.07391e-10
9.36685e-11
8.0209e-11
6.70843e-11
5.39969e-11
4.10052e-11
2.78369e-11
2.11884e-11
1.43233e-11
7.29913e-12
0
)


113
(
0
5.26912e-11
1.00568e-10
1.45292e-10
1.88195e-10
2.29887e-10
2.70695e-10
3.10862e-10
3.50672e-10
3.90194e-10
4.29281e-10
4.68089e-10
5.06678e-10
5.44674e-10
5.82374e-10
6.19648e-10
6.56225e-10
6.92453e-10
7.27832e-10
7.62596e-10
7.96814e-10
8.29871e-10
8.66757e-10
9.14907e-10
9.51514e-10
9.81592e-10
1.0099e-09
1.03742e-09
1.06382e-09
1.08864e-09
1.11263e-09
1.135e-09
1.15609e-09
1.17632e-09
1.19442e-09
1.21158e-09
1.22749e-09
1.24151e-09
1.25459e-09
1.26602e-09
1.2759e-09
1.28479e-09
1.29167e-09
1.29734e-09
1.30185e-09
1.30431e-09
1.3061e-09
1.30566e-09
1.30439e-09
1.30138e-09
1.29716e-09
1.29158e-09
1.28446e-09
1.27631e-09
1.26642e-09
1.25572e-09
1.24321e-09
1.22998e-09
1.21503e-09
1.19931e-09
1.1821e-09
1.16398e-09
1.14466e-09
1.12424e-09
1.10299e-09
1.0804e-09
1.05737e-09
1.03277e-09
1.0081e-09
9.81662e-10
9.55228e-10
9.27418e-10
8.99346e-10
8.70377e-10
8.40881e-10
8.10894e-10
7.802e-10
7.49131e-10
7.16225e-10
6.83319e-10
6.5074e-10
6.18193e-10
5.85471e-10
5.52652e-10
5.19824e-10
4.86982e-10
4.54171e-10
4.21541e-10
3.88911e-10
3.56666e-10
3.24434e-10
3.08501e-10
2.92627e-10
2.76752e-10
2.60878e-10
2.45177e-10
2.29509e-10
2.13842e-10
1.98195e-10
1.82603e-10
1.6701e-10
1.514e-10
1.35656e-10
1.19911e-10
1.03976e-10
8.77975e-11
7.14266e-11
5.45615e-11
3.71654e-11
2.83009e-11
1.9095e-11
9.69649e-12
0
)


113
(
0
4.14413e-11
7.97339e-11
1.15396e-10
1.49122e-10
1.81259e-10
2.11943e-10
2.41263e-10
2.69703e-10
2.97401e-10
3.23958e-10
3.49885e-10
3.75317e-10
3.99693e-10
4.23654e-10
4.47016e-10
4.6958e-10
4.91775e-10
5.13142e-10
5.33976e-10
5.54339e-10
5.73784e-10
5.92858e-10
6.11164e-10
6.28795e-10
6.46024e-10
6.622e-10
6.77925e-10
6.93003e-10
7.0719e-10
7.20916e-10
7.3375e-10
7.45881e-10
7.57541e-10
7.6806e-10
7.78076e-10
7.87422e-10
7.95764e-10
8.03607e-10
8.10582e-10
8.16734e-10
8.22371e-10
8.26946e-10
8.30884e-10
8.34212e-10
8.36455e-10
8.38346e-10
8.39051e-10
8.39317e-10
8.38654e-10
8.37338e-10
8.35288e-10
8.324e-10
8.28954e-10
8.24548e-10
8.1969e-10
8.13823e-10
8.07544e-10
8.00283e-10
7.92579e-10
7.83999e-10
7.74882e-10
7.65041e-10
7.54531e-10
7.43503e-10
7.31632e-10
7.1947e-10
7.06282e-10
6.93043e-10
6.78589e-10
6.64135e-10
6.48669e-10
6.3301e-10
6.16636e-10
5.9984e-10
5.82608e-10
5.64746e-10
5.46715e-10
5.27857e-10
5.08998e-10
4.89296e-10
4.6951e-10
4.49174e-10
4.28528e-10
4.07575e-10
3.86122e-10
3.64551e-10
3.42313e-10
3.20076e-10
2.97058e-10
2.74015e-10
2.62157e-10
2.50192e-10
2.38228e-10
2.26263e-10
2.13864e-10
2.01383e-10
1.88901e-10
1.76245e-10
1.63143e-10
1.5004e-10
1.36849e-10
1.23009e-10
1.09169e-10
9.49667e-11
8.03024e-11
6.5403e-11
4.9899e-11
3.38969e-11
2.57441e-11
1.7321e-11
8.7611e-12
0
)


113
(
0
2.22829e-11
4.3377e-11
6.33352e-11
8.23503e-11
1.00515e-10
1.17829e-10
1.34261e-10
1.50085e-10
1.65385e-10
1.79836e-10
1.93803e-10
2.07389e-10
2.20159e-10
2.32614e-10
2.44616e-10
2.56034e-10
2.67189e-10
2.77767e-10
2.87995e-10
2.97913e-10
3.0726e-10
3.16386e-10
3.25059e-10
3.33356e-10
3.4143e-10
3.48942e-10
3.56224e-10
3.63175e-10
3.69689e-10
3.7598e-10
3.81845e-10
3.87386e-10
3.92708e-10
3.97514e-10
4.02096e-10
4.06381e-10
4.10227e-10
4.13858e-10
4.17114e-10
4.20018e-10
4.22703e-10
4.24938e-10
4.26905e-10
4.28614e-10
4.29867e-10
4.30972e-10
4.31579e-10
4.32001e-10
4.32032e-10
4.31788e-10
4.31233e-10
4.30322e-10
4.29174e-10
4.27614e-10
4.2586e-10
4.23668e-10
4.21296e-10
4.18491e-10
4.1549e-10
4.12095e-10
4.08457e-10
4.04485e-10
4.00203e-10
3.95675e-10
3.90744e-10
3.85669e-10
3.80085e-10
3.74475e-10
3.68233e-10
3.61992e-10
3.55193e-10
3.48288e-10
3.40961e-10
3.33385e-10
3.25529e-10
3.1727e-10
3.0889e-10
2.99926e-10
2.90961e-10
2.81328e-10
2.7163e-10
2.61439e-10
2.50971e-10
2.40194e-10
2.28913e-10
2.17502e-10
2.05354e-10
1.93206e-10
1.80157e-10
1.6708e-10
1.60165e-10
1.5313e-10
1.46095e-10
1.39061e-10
1.31587e-10
1.24029e-10
1.16472e-10
1.08763e-10
1.00666e-10
9.25683e-11
8.44064e-11
7.57704e-11
6.71345e-11
5.8275e-11
4.91311e-11
3.98627e-11
3.02746e-11
2.04539e-11
1.54736e-11
1.03782e-11
5.22815e-12
0
)


113
(
0
1.83807e-12
3.63169e-12
5.37867e-12
7.08336e-12
8.74708e-12
1.03668e-11
1.19366e-11
1.34696e-11
1.49698e-11
1.64132e-11
1.78215e-11
1.92024e-11
2.052e-11
2.18117e-11
2.30661e-11
2.427e-11
2.54505e-11
2.65789e-11
2.76744e-11
2.87407e-11
2.97519e-11
3.07413e-11
3.16861e-11
3.25928e-11
3.34771e-11
3.4304e-11
3.51073e-11
3.58764e-11
3.66001e-11
3.73007e-11
3.79568e-11
3.85789e-11
3.91782e-11
3.97234e-11
4.02451e-11
4.07357e-11
4.11802e-11
4.16021e-11
4.19847e-11
4.23305e-11
4.26533e-11
4.29288e-11
4.31762e-11
4.33965e-11
4.35689e-11
4.37258e-11
4.38302e-11
4.39152e-11
4.39589e-11
4.39734e-11
4.3955e-11
4.38987e-11
4.38171e-11
4.36913e-11
4.35448e-11
4.33509e-11
4.31377e-11
4.28771e-11
4.25953e-11
4.227e-11
4.1918e-11
4.15288e-11
4.11051e-11
4.06536e-11
4.01567e-11
3.96434e-11
3.90721e-11
3.84978e-11
3.78508e-11
3.72037e-11
3.64919e-11
3.57678e-11
3.49944e-11
3.4192e-11
3.33569e-11
3.24747e-11
3.15786e-11
3.06148e-11
2.9651e-11
2.86112e-11
2.75639e-11
2.64623e-11
2.53302e-11
2.41655e-11
2.29477e-11
2.17172e-11
2.04137e-11
1.91103e-11
1.77248e-11
1.63368e-11
1.56117e-11
1.48768e-11
1.41419e-11
1.3407e-11
1.26397e-11
1.18663e-11
1.10928e-11
1.03095e-11
9.50079e-12
8.69209e-12
7.87965e-12
7.03978e-12
6.19991e-12
5.34851e-12
4.48242e-12
3.61053e-12
2.7237e-12
1.82687e-12
1.37547e-12
9.19394e-13
4.6119e-13
0
)

)


10
(

113
(
0
1.2022e-36
1.27373e-35
1.41595e-35
5.55511e-35
6.51405e-35
1.04303e-34
1.99857e-33
5.12621e-32
9.67761e-31
1.34176e-29
1.38791e-28
1.0953e-27
6.75067e-27
3.23361e-26
1.41518e-25
8.03195e-25
4.24763e-24
2.12441e-23
1.00303e-22
4.4084e-22
1.76123e-21
6.16639e-21
2.9122e-20
1.32759e-19
5.86663e-19
2.51162e-18
1.04417e-17
4.3506e-17
2.10565e-16
1.57418e-15
1.74363e-14
2.03767e-13
2.09844e-12
1.89968e-11
1.81201e-10
1.42808e-09
8.34584e-09
3.5202e-08
1.04999e-07
2.20419e-07
3.27165e-07
3.55468e-07
3.01058e-07
2.11214e-07
1.29737e-07
7.35362e-08
4.03072e-08
2.27967e-08
1.34249e-08
8.11511e-09
5.04198e-09
3.18501e-09
2.01804e-09
1.26114e-09
8.04489e-10
4.96922e-10
2.88952e-10
1.54121e-10
8.3037e-11
4.24265e-11
1.84917e-11
7.55364e-12
3.40673e-12
1.13723e-12
3.84821e-13
1.46442e-13
3.55805e-14
1.35826e-14
3.67007e-15
7.64336e-16
3.29643e-16
6.43295e-17
2.66593e-17
5.95922e-18
1.95984e-18
5.43236e-19
1.2606e-19
4.89252e-20
8.76987e-21
4.33533e-21
8.20347e-22
3.66609e-22
7.09675e-23
2.68057e-23
5.06012e-24
1.36088e-24
2.58157e-25
2.094e-26
8.16311e-27
4.7863e-28
3.03324e-28
1.28017e-28
1.33899e-29
8.53001e-30
3.67014e-30
3.51489e-31
2.19306e-31
8.71239e-32
2.13469e-32
1.21374e-32
3.25484e-33
2.65063e-33
2.04642e-33
2.01651e-33
2.08158e-33
1.55444e-33
1.1276e-33
8.68304e-34
8.16246e-34
1.12307e-33
4.97306e-34
0
)


113
(
0
1.73351e-24
5.49072e-23
1.30547e-21
1.39617e-20
1.01739e-19
7.90212e-19
5.21874e-18
2.89955e-17
1.47541e-16
7.07357e-16
2.83621e-15
1.0705e-14
3.66385e-14
1.10094e-13
3.16006e-13
9.477e-13
2.61173e-12
6.69379e-12
1.60103e-11
3.5857e-11
7.55684e-11
1.51081e-10
3.08396e-10
5.9283e-10
1.07732e-09
1.87575e-09
3.15789e-09
5.16715e-09
8.12031e-09
1.21621e-08
1.75639e-08
2.45873e-08
3.33957e-08
4.38706e-08
5.58021e-08
6.87277e-08
8.19877e-08
9.47644e-08
1.06259e-07
1.1558e-07
1.21844e-07
1.24921e-07
1.24247e-07
1.20223e-07
1.13103e-07
1.03449e-07
9.20094e-08
7.97674e-08
6.73787e-08
5.53076e-08
4.41811e-08
3.44008e-08
2.61179e-08
1.93059e-08
1.4144e-08
1.01402e-08
7.04374e-09
4.71109e-09
3.17833e-09
2.11734e-09
1.34667e-09
8.41341e-10
5.45478e-10
3.29751e-10
1.96931e-10
1.23419e-10
6.99999e-11
4.22265e-11
2.46158e-11
1.28973e-11
7.98831e-12
4.07507e-12
2.35087e-12
1.19957e-12
6.12076e-13
3.17486e-13
1.36237e-13
7.4544e-14
2.7673e-14
1.54867e-14
5.49317e-15
2.79967e-15
9.43473e-16
4.19161e-16
1.35991e-16
4.69534e-17
1.54217e-17
3.05857e-18
1.43204e-18
2.94263e-19
1.95142e-19
9.60205e-20
2.87611e-20
1.91398e-20
9.51861e-21
2.70948e-21
1.71435e-21
7.19217e-22
2.10276e-22
1.15501e-22
2.3937e-23
1.36792e-23
3.42146e-24
1.13844e-24
2.46702e-25
9.95416e-26
1.78299e-26
3.22908e-27
9.87159e-28
3.53538e-28
7.79434e-29
0
)


113
(
0
7.10918e-13
2.40925e-12
6.11669e-12
1.28676e-11
2.39857e-11
4.29457e-11
7.54208e-11
1.26634e-10
1.96277e-10
2.97116e-10
4.4046e-10
6.38832e-10
9.03389e-10
1.24149e-09
1.6809e-09
2.27364e-09
3.01701e-09
3.91774e-09
4.98154e-09
6.23902e-09
7.74809e-09
9.53853e-09
1.16333e-08
1.39474e-08
1.6479e-08
1.92049e-08
2.21258e-08
2.52892e-08
2.87491e-08
3.24938e-08
3.63895e-08
4.0115e-08
4.35888e-08
4.69566e-08
5.0407e-08
5.36318e-08
5.64928e-08
5.9005e-08
6.10927e-08
6.27713e-08
6.3909e-08
6.44898e-08
6.46608e-08
6.42384e-08
6.33752e-08
6.19909e-08
6.00511e-08
5.79739e-08
5.55163e-08
5.24775e-08
4.91096e-08
4.56795e-08
4.22931e-08
3.89176e-08
3.54733e-08
3.19602e-08
2.8606e-08
2.54917e-08
2.26383e-08
1.98821e-08
1.72409e-08
1.47646e-08
1.26088e-08
1.06302e-08
8.86714e-09
7.41276e-09
6.10295e-09
5.04104e-09
4.12113e-09
3.28354e-09
2.63084e-09
2.03561e-09
1.58965e-09
1.23024e-09
9.56018e-10
7.3506e-10
5.34714e-10
4.00286e-10
2.76768e-10
2.05677e-10
1.42258e-10
1.04381e-10
7.27982e-11
5.12294e-11
3.49797e-11
2.30122e-11
1.52789e-11
8.95684e-12
5.89201e-12
3.34784e-12
2.66538e-12
1.98291e-12
1.43574e-12
1.13331e-12
8.30887e-13
5.84633e-13
4.54518e-13
3.24404e-13
2.32596e-13
1.73421e-13
1.15318e-13
8.43506e-14
5.33829e-14
3.59531e-14
2.09332e-14
1.3156e-14
7.16083e-15
3.45482e-15
2.15656e-15
1.26797e-15
5.66939e-16
0
)


113
(
0
9.32401e-11
2.0931e-10
3.65517e-10
5.6399e-10
8.10922e-10
1.11286e-09
1.47588e-09
1.90539e-09
2.40603e-09
2.98167e-09
3.63554e-09
4.33396e-09
5.10531e-09
6.08841e-09
7.27848e-09
8.32465e-09
9.39077e-09
1.06609e-08
1.2002e-08
1.33261e-08
1.47845e-08
1.6338e-08
1.79867e-08
1.95274e-08
2.11409e-08
2.28742e-08
2.46473e-08
2.63412e-08
2.79458e-08
2.95179e-08
3.09278e-08
3.22843e-08
3.38463e-08
3.54535e-08
3.67313e-08
3.74868e-08
3.85072e-08
3.9425e-08
4.01505e-08
4.0717e-08
4.11314e-08
4.1418e-08
4.15009e-08
4.15012e-08
4.13091e-08
4.10378e-08
4.05279e-08
3.98159e-08
3.92925e-08
3.834e-08
3.71667e-08
3.60216e-08
3.49106e-08
3.36515e-08
3.21977e-08
3.07712e-08
2.94219e-08
2.81184e-08
2.65945e-08
2.49845e-08
2.33233e-08
2.16171e-08
2.01642e-08
1.88154e-08
1.75784e-08
1.6198e-08
1.47743e-08
1.33034e-08
1.21443e-08
1.11657e-08
1.01238e-08
9.05399e-09
7.9088e-09
6.85408e-09
5.8884e-09
5.3424e-09
4.9588e-09
4.42561e-09
3.86895e-09
3.20898e-09
2.59064e-09
2.11081e-09
1.68207e-09
1.33457e-09
1.10225e-09
9.62637e-10
8.16015e-10
6.67055e-10
5.36325e-10
4.16115e-10
3.68443e-10
3.2077e-10
2.77813e-10
2.43383e-10
2.08954e-10
1.77692e-10
1.52978e-10
1.28264e-10
1.07313e-10
8.95679e-11
7.20098e-11
5.91779e-11
4.63461e-11
3.64225e-11
2.70228e-11
1.993e-11
1.36234e-11
8.39025e-12
6.07591e-12
3.99442e-12
1.99612e-12
0
)


113
(
0
3.96399e-10
7.8497e-10
1.20647e-09
1.6683e-09
2.17469e-09
2.72698e-09
3.32435e-09
3.96493e-09
4.64631e-09
5.36597e-09
6.12135e-09
6.90985e-09
7.72891e-09
8.57583e-09
9.44939e-09
1.03468e-08
1.12618e-08
1.21909e-08
1.31307e-08
1.40776e-08
1.50278e-08
1.59774e-08
1.69208e-08
1.77541e-08
1.86974e-08
1.98787e-08
2.07946e-08
2.14992e-08
2.23895e-08
2.31628e-08
2.3956e-08
2.47877e-08
2.5306e-08
2.61966e-08
2.67135e-08
2.71756e-08
2.73801e-08
2.7741e-08
2.84164e-08
2.86067e-08
2.87102e-08
2.89026e-08
2.89841e-08
2.90073e-08
2.89848e-08
2.88987e-08
2.8764e-08
2.85557e-08
2.83201e-08
2.79913e-08
2.75257e-08
2.70757e-08
2.66153e-08
2.59512e-08
2.56829e-08
2.51361e-08
2.43945e-08
2.3542e-08
2.28113e-08
2.2278e-08
2.1573e-08
2.03945e-08
1.99731e-08
1.94534e-08
1.86031e-08
1.69845e-08
1.55842e-08
1.52209e-08
1.52145e-08
1.54149e-08
1.35698e-08
1.172e-08
1.00818e-08
9.5832e-09
1.02063e-08
9.61136e-09
8.54516e-09
7.84512e-09
7.18552e-09
6.57193e-09
5.97057e-09
5.40993e-09
4.87033e-09
4.36421e-09
3.8883e-09
3.43672e-09
3.02492e-09
2.62638e-09
2.27768e-09
1.94312e-09
1.79228e-09
1.64143e-09
1.49809e-09
1.36831e-09
1.23854e-09
1.11485e-09
1.00375e-09
8.92639e-10
7.90249e-10
6.95285e-10
6.00834e-10
5.19372e-10
4.3791e-10
3.65561e-10
2.94858e-10
2.31823e-10
1.71254e-10
1.13784e-10
8.574e-11
5.78018e-11
2.94393e-11
0
)


113
(
0
6.09117e-10
1.16432e-09
1.70462e-09
2.24709e-09
2.79897e-09
3.36371e-09
3.94223e-09
4.53385e-09
5.13704e-09
5.74992e-09
6.37054e-09
6.99695e-09
7.6273e-09
8.25976e-09
8.89247e-09
9.52307e-09
1.01499e-08
1.07714e-08
1.1386e-08
1.19921e-08
1.25884e-08
1.31732e-08
1.37428e-08
1.42978e-08
1.48368e-08
1.53586e-08
1.58618e-08
1.63453e-08
1.6808e-08
1.72486e-08
1.76662e-08
1.80599e-08
1.84128e-08
1.84411e-08
1.87529e-08
1.90381e-08
1.92965e-08
1.95277e-08
1.97315e-08
1.99075e-08
2.00549e-08
2.01739e-08
2.03951e-08
2.12957e-08
2.10748e-08
2.12181e-08
2.11463e-08
2.1153e-08
2.10872e-08
2.09161e-08
2.08692e-08
2.08338e-08
2.07093e-08
2.05354e-08
2.04097e-08
2.12575e-08
2.07667e-08
1.86998e-08
1.83381e-08
1.79555e-08
1.75571e-08
1.71412e-08
1.6704e-08
1.62553e-08
1.57929e-08
1.51336e-08
1.44908e-08
1.4001e-08
1.35032e-08
1.30008e-08
1.24894e-08
1.19761e-08
1.14583e-08
1.09392e-08
1.04189e-08
9.89955e-09
9.38054e-09
8.86616e-09
8.35291e-09
7.84782e-09
7.34561e-09
6.85297e-09
6.36641e-09
5.88954e-09
5.42305e-09
4.96492e-09
4.52273e-09
4.08585e-09
3.67198e-09
3.26551e-09
3.07092e-09
2.87634e-09
2.68618e-09
2.50402e-09
2.32187e-09
2.14364e-09
1.97351e-09
1.80338e-09
1.63912e-09
1.47984e-09
1.32091e-09
1.17047e-09
1.02003e-09
8.74724e-10
7.30332e-10
5.88644e-10
4.46707e-10
3.03467e-10
2.30838e-10
1.56196e-10
7.95817e-11
0
)


113
(
0
6.06157e-10
1.15512e-09
1.66776e-09
2.15948e-09
2.63689e-09
3.10446e-09
3.56516e-09
4.0208e-09
4.47231e-09
4.92007e-09
5.36407e-09
5.8041e-09
6.23979e-09
6.67071e-09
7.09591e-09
7.51429e-09
7.92596e-09
8.33039e-09
8.72701e-09
9.1153e-09
9.49471e-09
9.86471e-09
1.03971e-08
1.07675e-08
1.11016e-08
1.14231e-08
1.17315e-08
1.20264e-08
1.23074e-08
1.25741e-08
1.28262e-08
1.30633e-08
1.32853e-08
1.34917e-08
1.36821e-08
1.38567e-08
1.40153e-08
1.4158e-08
1.42846e-08
1.43951e-08
1.44889e-08
1.45662e-08
1.46272e-08
1.46721e-08
1.47009e-08
1.47138e-08
1.47108e-08
1.4691e-08
1.46549e-08
1.46033e-08
1.45364e-08
1.44546e-08
1.43584e-08
1.42483e-08
1.41208e-08
1.39791e-08
1.38246e-08
1.36581e-08
1.34757e-08
1.32797e-08
1.30733e-08
1.2855e-08
1.26214e-08
1.23791e-08
1.21263e-08
1.18596e-08
1.15862e-08
1.13011e-08
1.10066e-08
1.07066e-08
1.03931e-08
1.00759e-08
9.7491e-09
9.41658e-09
9.0784e-09
8.73312e-09
8.38508e-09
7.96221e-09
7.53724e-09
7.17768e-09
6.81749e-09
6.45514e-09
6.09242e-09
5.7291e-09
5.36624e-09
5.00376e-09
4.64314e-09
4.28314e-09
3.92688e-09
3.57198e-09
3.39612e-09
3.22026e-09
3.04517e-09
2.87149e-09
2.69781e-09
2.52465e-09
2.35255e-09
2.18046e-09
2.00858e-09
1.83688e-09
1.66513e-09
1.4921e-09
1.31907e-09
1.14317e-09
9.66737e-10
7.85033e-10
5.99888e-10
4.08936e-10
3.11089e-10
2.10101e-10
1.06659e-10
0
)


113
(
0
4.69902e-10
9.0319e-10
1.30649e-09
1.68794e-09
2.05075e-09
2.39751e-09
2.73053e-09
3.05169e-09
3.36243e-09
3.66387e-09
3.9568e-09
4.24184e-09
4.51941e-09
4.78981e-09
5.05277e-09
5.30804e-09
5.55654e-09
5.79828e-09
6.03325e-09
6.26137e-09
6.48256e-09
6.69671e-09
6.90261e-09
7.10129e-09
7.29266e-09
7.47656e-09
7.65289e-09
7.82153e-09
7.98235e-09
8.13525e-09
8.28011e-09
8.41684e-09
8.54535e-09
8.66555e-09
8.77719e-09
8.8804e-09
8.97521e-09
9.06157e-09
9.13946e-09
9.20885e-09
9.26946e-09
9.32142e-09
9.36483e-09
9.39974e-09
9.42616e-09
9.44415e-09
9.45375e-09
9.45441e-09
9.44631e-09
9.4299e-09
9.40522e-09
9.37246e-09
9.33181e-09
9.28351e-09
9.22552e-09
9.15952e-09
9.08629e-09
9.00617e-09
8.91684e-09
8.81952e-09
8.71595e-09
8.60525e-09
8.4851e-09
8.35954e-09
8.22731e-09
8.08604e-09
7.94031e-09
7.78667e-09
7.62636e-09
7.46219e-09
7.28805e-09
7.11098e-09
6.92638e-09
6.73686e-09
6.54251e-09
6.34141e-09
6.13771e-09
5.92592e-09
5.71268e-09
5.49167e-09
5.26884e-09
5.03992e-09
4.80813e-09
4.57174e-09
4.3314e-09
4.08787e-09
3.83909e-09
3.58854e-09
3.33089e-09
3.0709e-09
2.93819e-09
2.80547e-09
2.67122e-09
2.53418e-09
2.39714e-09
2.25847e-09
2.11643e-09
1.97438e-09
1.8292e-09
1.68134e-09
1.53323e-09
1.37871e-09
1.2242e-09
1.06345e-09
9.01562e-10
7.32157e-10
5.58993e-10
3.79957e-10
2.88296e-10
1.94124e-10
9.81621e-11
0
)


113
(
0
2.51857e-10
4.9e-10
7.15222e-10
9.29854e-10
1.1345e-09
1.32973e-09
1.51622e-09
1.69464e-09
1.86562e-09
2.02969e-09
2.18732e-09
2.33891e-09
2.48476e-09
2.62516e-09
2.75998e-09
2.88921e-09
3.01365e-09
3.13347e-09
3.24878e-09
3.35968e-09
3.46628e-09
3.56864e-09
3.66621e-09
3.75975e-09
3.8493e-09
3.93492e-09
4.01662e-09
4.09445e-09
4.16843e-09
4.23859e-09
4.30495e-09
4.36753e-09
4.42634e-09
4.48141e-09
4.53265e-09
4.58019e-09
4.62405e-09
4.66427e-09
4.70084e-09
4.73378e-09
4.76299e-09
4.78855e-09
4.81049e-09
4.82886e-09
4.84367e-09
4.85493e-09
4.86267e-09
4.86665e-09
4.86695e-09
4.86374e-09
4.85703e-09
4.84688e-09
4.83337e-09
4.81659e-09
4.79562e-09
4.77117e-09
4.74356e-09
4.71291e-09
4.67817e-09
4.63982e-09
4.59863e-09
4.55416e-09
4.50528e-09
4.45382e-09
4.39917e-09
4.34007e-09
4.27873e-09
4.21338e-09
4.14452e-09
4.07361e-09
3.9972e-09
3.91911e-09
3.83663e-09
3.75111e-09
3.6626e-09
3.5696e-09
3.47487e-09
3.37429e-09
3.27262e-09
3.1648e-09
3.05538e-09
2.94063e-09
2.82308e-09
2.7011e-09
2.57491e-09
2.44534e-09
2.30978e-09
2.17222e-09
2.02633e-09
1.87775e-09
1.80033e-09
1.72291e-09
1.64383e-09
1.56175e-09
1.47968e-09
1.39603e-09
1.30913e-09
1.22222e-09
1.13266e-09
1.04084e-09
9.48838e-10
8.52143e-10
7.55447e-10
6.54783e-10
5.53397e-10
4.47804e-10
3.40331e-10
2.30022e-10
1.73892e-10
1.16694e-10
5.87743e-11
0
)


113
(
0
2.07207e-11
4.09321e-11
6.06145e-11
7.98244e-11
9.85532e-11
1.16793e-10
1.34546e-10
1.51817e-10
1.68615e-10
1.8495e-10
2.0083e-10
2.16263e-10
2.31255e-10
2.45811e-10
2.59906e-10
2.73518e-10
2.86707e-10
2.99475e-10
3.11826e-10
3.23761e-10
3.35282e-10
3.4639e-10
3.57024e-10
3.67254e-10
3.77082e-10
3.86508e-10
3.95534e-10
4.0416e-10
4.12388e-10
4.20219e-10
4.27655e-10
4.34696e-10
4.41343e-10
4.47599e-10
4.53454e-10
4.58922e-10
4.64005e-10
4.68705e-10
4.73024e-10
4.76962e-10
4.8051e-10
4.83674e-10
4.86461e-10
4.88872e-10
4.90908e-10
4.92573e-10
4.93867e-10
4.94765e-10
4.95273e-10
4.95411e-10
4.95176e-10
4.94577e-10
4.93618e-10
4.92309e-10
4.9055e-10
4.88415e-10
4.85936e-10
4.83127e-10
4.79869e-10
4.76215e-10
4.72246e-10
4.67913e-10
4.63085e-10
4.57967e-10
4.52489e-10
4.46504e-10
4.40263e-10
4.33561e-10
4.26452e-10
4.19107e-10
4.11121e-10
4.02937e-10
3.94241e-10
3.85189e-10
3.75786e-10
3.65858e-10
3.55728e-10
3.44919e-10
3.33984e-10
3.22346e-10
3.10528e-10
2.98114e-10
2.85398e-10
2.72202e-10
2.5857e-10
2.44587e-10
2.30017e-10
2.15253e-10
1.99724e-10
1.83967e-10
1.75824e-10
1.67681e-10
1.59409e-10
1.50905e-10
1.42402e-10
1.33787e-10
1.24943e-10
1.161e-10
1.07087e-10
9.79291e-11
8.87609e-11
7.93216e-11
6.98822e-11
6.02338e-11
5.05475e-11
4.06576e-11
3.0683e-11
2.05835e-11
1.54925e-11
1.03581e-11
5.19541e-12
0
)

)


10
(

113
(
0
1.43133e-38
1.18538e-38
2.1915e-37
1.56244e-35
1.60851e-33
1.11427e-31
4.93774e-30
1.45354e-28
2.88598e-27
4.02632e-26
3.88708e-25
2.58025e-24
1.17169e-23
5.07862e-23
2.67533e-22
1.236e-21
4.77692e-21
1.425e-20
4.875e-20
1.80831e-19
6.34e-19
2.12e-18
6.3e-18
1.63e-17
5.585e-17
2.00708e-16
8.80417e-16
5.15e-15
2.9375e-14
1.68125e-13
1.81673e-12
1.646e-11
1.213e-10
7.50273e-10
4.03091e-09
1.72455e-08
5.96364e-08
1.71e-07
4.17364e-07
7.52909e-07
1.0524e-06
1.12455e-06
9.676e-07
6.88636e-07
4.21727e-07
2.24909e-07
1.09433e-07
5.06e-08
2.21e-08
1.17077e-08
5.46917e-09
2.44e-09
1.04971e-09
4.98286e-10
2.33143e-10
9.24286e-11
3.1e-11
1.50667e-11
5.31875e-12
1.75625e-12
7.48062e-13
2.02712e-13
7.50875e-14
2.37553e-14
5.12e-15
2.64778e-15
6.04944e-16
2.79667e-16
6.80556e-17
2.69444e-17
7.59789e-18
2.76105e-18
8.87789e-19
2.84632e-19
1.0672e-19
3.512e-20
1.354e-20
4.465e-21
1.7204e-21
5.584e-22
2.0988e-22
6.473e-23
2.20074e-23
4.89158e-24
1.8435e-24
3.585e-25
1.0991e-25
9.29444e-27
4.03889e-27
2.98694e-28
1.96518e-28
9.43412e-29
1.18433e-29
8.05987e-30
4.27644e-30
4.93e-31
3.358e-31
1.786e-31
2.14e-32
1.28754e-32
4.35083e-33
6.95518e-34
2.86382e-34
3.23156e-35
1.08544e-35
1.646e-36
2.07e-36
8.35e-36
3.91875e-36
6.512e-37
1.8406e-36
0
)


113
(
0
1.63005e-23
5.07213e-22
7.7002e-21
7.30794e-20
5.54355e-19
4.04787e-18
2.70431e-17
1.56672e-16
8.12785e-16
3.82913e-15
1.52317e-14
5.08434e-14
1.5288e-13
4.94199e-13
1.56082e-12
4.48973e-12
1.18392e-11
2.63562e-11
6.08329e-11
1.47095e-10
3.18336e-10
6.42985e-10
1.2183e-09
2.19275e-09
4.03919e-09
7.18282e-09
1.20689e-08
1.92302e-08
2.92968e-08
4.35211e-08
6.2902e-08
8.78722e-08
1.18217e-07
1.53504e-07
1.93237e-07
2.35885e-07
2.79238e-07
3.20906e-07
3.57064e-07
3.85507e-07
4.04568e-07
4.11507e-07
4.07404e-07
3.91079e-07
3.64819e-07
3.31533e-07
2.93365e-07
2.51969e-07
2.09861e-07
1.70758e-07
1.35425e-07
1.04884e-07
7.87452e-08
5.75066e-08
4.13361e-08
2.84739e-08
1.86738e-08
1.27266e-08
8.13727e-09
4.90589e-09
3.14418e-09
1.80283e-09
1.06132e-09
6.1984e-10
3.06949e-10
1.90507e-10
8.97023e-11
5.14483e-11
2.38742e-11
1.232e-11
5.82712e-12
2.70841e-12
1.25527e-12
5.15958e-13
2.46915e-13
9.54407e-14
4.31644e-14
1.56876e-14
6.68135e-15
2.29271e-15
9.17433e-16
2.95501e-16
1.07236e-16
2.73889e-17
1.14923e-17
2.70147e-18
9.94253e-19
1.57626e-19
7.26167e-20
1.09812e-20
7.43325e-21
3.88529e-21
9.85615e-22
6.79086e-22
3.72556e-22
6.60266e-23
4.55979e-23
2.51692e-23
4.74055e-24
2.93944e-24
1.13833e-24
3.14385e-25
1.41889e-25
3.08736e-26