/*--------------------------------*- C++ -*----------------------------------*\
| =========                 |                                                 |
| \\      /  F ield         | OpenFOAM: The Open Source CFD Toolbox           |
|  \\    /   O peration     | Version:  2.3.0                                 |
|   \\  /    A nd           | Web:      www.OpenFOAM.org                      |
|    \\/     M anipulation  |                                                 |
\*---------------------------------------------------------------------------*/
FoamFile
{
    version     2.0;
    format      ascii;
    class       dictionary;
    location    "constant";
    object      CH2OH;
}
// * * * * * * * * * * * * * * * * * * * * * * * * * * * * * * * * * * * * * //

CH2OH_table
13
(

10
(

113
(
0
2.025e-33
4.0306e-33
1.45626e-32
1.53351e-31
1.41724e-30
7.51883e-30
8.01761e-29
5.74807e-28
1.92358e-27
9.54609e-27
4.95513e-26
1.15e-25
7.34497e-25
3.62112e-24
9.77019e-24
5.81166e-23
1.98841e-22
7.39085e-22
3.3819e-21
7.88926e-21
3.74583e-20
1.13496e-19
3.13867e-19
1.04338e-18
2.13795e-18
6.53547e-18
1.56416e-17
3.15236e-17
8.41591e-17
3.87231e-16
1.59786e-15
4.27098e-14
1.62616e-13
2.89343e-12
3.34478e-11
1.00884e-10
8.69006e-10
3.03747e-09
8.65772e-09
2.10796e-08
3.66379e-08
5.2787e-08
6.29293e-08
6.73006e-08
6.48439e-08
6.09346e-08
5.5795e-08
5.08297e-08
4.62351e-08
4.19904e-08
3.81401e-08
3.46625e-08
3.14333e-08
2.86741e-08
2.6136e-08
2.40995e-08
2.22678e-08
2.09e-08
1.97406e-08
1.89457e-08
1.83743e-08
1.80271e-08
1.78869e-08
1.78704e-08
1.80556e-08
1.82505e-08
1.84798e-08
1.87073e-08
1.88891e-08
1.90709e-08
1.91e-08
1.91e-08
1.86743e-08
1.79986e-08
1.67763e-08
1.47674e-08
1.26291e-08
9.8592e-09
7.08929e-09
5.12423e-09
3.23877e-09
2.04234e-09
1.23349e-09
6.3504e-10
3.79883e-10
1.53732e-10
9.19427e-11
3.01537e-11
1.66693e-11
4.67885e-12
2.66283e-12
1.90339e-12
1.14395e-12
3.8451e-13
2.06182e-13
1.38542e-13
7.09011e-14
2.04916e-14
1.43904e-14
8.28911e-15
2.81603e-15
1.94961e-15
1.08319e-15
5.06333e-16
2.98e-16
1.28694e-16
5.97432e-17
1.94111e-17
7.27371e-18
2.69514e-18
3.49238e-19
0
)


113
(
0
1.66369e-25
6.60021e-24
1.55419e-22
1.50768e-21
1.33837e-20
7.22293e-20
6.04476e-19
3.95408e-18
1.34491e-17
7.07572e-17
3.53453e-16
8.13239e-16
3.97652e-15
1.32933e-14
3.14651e-14
1.17859e-13
2.73233e-13
6.82124e-13
1.82997e-12
3.63313e-12
9.27832e-12
1.84939e-11
3.66564e-11
7.42312e-11
1.24123e-10
2.42498e-10
4.1695e-10
6.721e-10
1.11848e-09
1.69471e-09
2.57954e-09
3.78842e-09
5.21788e-09
7.30376e-09
9.69546e-09
1.24926e-08
1.58197e-08
1.93419e-08
2.31386e-08
2.69393e-08
3.06915e-08
3.40744e-08
3.70271e-08
3.95664e-08
4.11317e-08
4.23788e-08
4.25521e-08
4.23651e-08
4.14128e-08
4.00955e-08
3.83666e-08
3.64315e-08
3.43589e-08
3.22863e-08
3.02138e-08
2.83349e-08
2.65352e-08
2.50088e-08
2.36052e-08
2.24628e-08
2.14805e-08
2.06862e-08
2.00656e-08
1.95372e-08
1.91594e-08
1.88014e-08
1.85135e-08
1.82224e-08
1.7856e-08
1.74896e-08
1.69256e-08
1.63239e-08
1.55156e-08
1.4586e-08
1.35298e-08
1.22916e-08
1.10264e-08
9.62962e-09
8.23283e-09
6.90632e-09
5.58676e-09
4.44612e-09
3.40611e-09
2.50464e-09
1.82917e-09
1.20146e-09
8.4435e-10
4.87244e-10
3.24895e-10
1.6857e-10
1.28438e-10
1.00317e-10
7.21946e-11
4.40726e-11
3.23577e-11
2.37679e-11
1.51781e-11
8.35548e-12
6.07703e-12
3.79857e-12
1.72788e-12
1.18081e-12
6.33734e-13
2.72797e-13
1.4876e-13
5.11986e-14
2.17166e-14
6.39791e-15
2.59712e-15
1.21634e-15
3.57575e-16
0
)


113
(
0
1.10573e-13
3.7806e-13
9.65855e-13
2.06532e-12
3.92546e-12
6.95652e-12
1.30316e-11
2.18347e-11
3.33518e-11
5.20848e-11
7.91354e-11
1.12721e-10
1.68172e-10
2.36369e-10
3.22907e-10
4.42745e-10
5.83126e-10
7.83161e-10
1.01976e-09
1.28878e-09
1.64101e-09
2.04443e-09
2.56724e-09
3.14265e-09
3.75081e-09
4.51431e-09
5.34714e-09
6.27973e-09
7.31307e-09
8.39867e-09
9.58611e-09
1.0856e-08
1.21799e-08
1.35642e-08
1.49701e-08
1.64045e-08
1.78451e-08
1.92741e-08
2.06685e-08
2.19985e-08
2.32831e-08
2.44458e-08
2.5517e-08
2.65002e-08
2.72904e-08
2.80197e-08
2.85542e-08
2.89997e-08
2.92562e-08
2.93863e-08
2.93738e-08
2.92206e-08
2.89737e-08
2.85717e-08
2.80967e-08
2.75469e-08
2.69666e-08
2.6269e-08
2.55186e-08
2.47508e-08
2.39723e-08
2.3169e-08
2.23427e-08
2.15046e-08
2.0647e-08
1.979e-08
1.89351e-08
1.80798e-08
1.7215e-08
1.63501e-08
1.54779e-08
1.46043e-08
1.3726e-08
1.2845e-08
1.1961e-08
1.10726e-08
1.01869e-08
9.31465e-09
8.44236e-09
7.60494e-09
6.77097e-09
5.98705e-09
5.23129e-09
4.51398e-09
3.85937e-09
3.22266e-09
2.6873e-09
2.15194e-09
1.74917e-09
1.35049e-09
1.19306e-09
1.04886e-09
9.04666e-10
7.60469e-10
6.56267e-10
5.59683e-10
4.63099e-10
3.76163e-10
3.14038e-10
2.51912e-10
1.92675e-10
1.54626e-10
1.16577e-10
8.49811e-11
6.15995e-11
4.0644e-11
2.5927e-11
1.4467e-11
9.68079e-12
6.10105e-12
2.91232e-12
0
)


113
(
0
2.22133e-11
5.03894e-11
8.88408e-11
1.38608e-10
2.00893e-10
2.78432e-10
3.76287e-10
4.91377e-10
6.22439e-10
7.85147e-10
9.70155e-10
1.17268e-09
1.42897e-09
1.70195e-09
1.99894e-09
2.34809e-09
2.71998e-09
3.1392e-09
3.59091e-09
4.07143e-09
4.57565e-09
5.10365e-09
5.69183e-09
6.30576e-09
6.93444e-09
7.57598e-09
8.25868e-09
9.0006e-09
9.74e-09
1.04893e-08
1.12784e-08
1.20502e-08
1.28108e-08
1.35679e-08
1.43282e-08
1.50928e-08
1.58213e-08
1.65354e-08
1.72273e-08
1.78856e-08
1.85224e-08
1.91112e-08
1.96616e-08
2.01749e-08
2.06251e-08
2.10536e-08
2.14048e-08
2.17246e-08
2.19777e-08
2.21762e-08
2.23131e-08
2.23635e-08
2.23562e-08
2.23242e-08
2.22805e-08
2.21432e-08
2.19677e-08
2.16765e-08
2.13334e-08
2.0982e-08
2.06256e-08
2.0199e-08
1.97075e-08
1.91933e-08
1.86423e-08
1.80727e-08
1.74374e-08
1.68014e-08
1.61475e-08
1.54937e-08
1.48049e-08
1.41094e-08
1.33957e-08
1.26714e-08
1.19448e-08
1.12149e-08
1.04911e-08
9.79622e-09
9.10137e-09
8.4111e-09
7.72129e-09
7.06637e-09
6.4311e-09
5.80539e-09
5.19529e-09
4.59748e-09
4.06929e-09
3.54109e-09
3.07556e-09
2.61198e-09
2.40634e-09
2.20895e-09
2.01157e-09
1.81418e-09
1.64439e-09
1.47985e-09
1.31531e-09
1.15905e-09
1.02409e-09
8.89129e-10
7.57215e-10
6.47634e-10
5.38053e-10
4.37582e-10
3.48707e-10
2.64175e-10
1.90811e-10
1.23748e-10
9.19868e-11
6.19209e-11
3.17058e-11
0
)


113
(
0
1.27081e-10
2.54309e-10
3.94428e-10
5.50414e-10
7.23285e-10
9.15116e-10
1.12891e-09
1.35911e-09
1.60387e-09
1.87406e-09
2.15984e-09
2.45786e-09
2.78361e-09
3.12041e-09
3.47313e-09
3.84639e-09
4.22882e-09
4.63102e-09
5.0445e-09
5.46798e-09
5.90798e-09
6.35371e-09
6.81054e-09
7.28916e-09
7.78038e-09
8.28773e-09
8.78185e-09
9.25693e-09
9.76915e-09
1.02709e-08
1.06983e-08
1.11665e-08
1.16607e-08
1.21488e-08
1.25892e-08
1.29665e-08
1.33946e-08
1.38121e-08
1.41762e-08
1.45332e-08
1.48831e-08
1.52059e-08
1.55077e-08
1.57891e-08
1.60298e-08
1.6259e-08
1.64575e-08
1.66416e-08
1.67953e-08
1.69182e-08
1.70064e-08
1.70638e-08
1.71005e-08
1.71032e-08
1.70899e-08
1.70115e-08
1.69066e-08
1.67751e-08
1.66317e-08
1.64588e-08
1.6268e-08
1.60341e-08
1.57606e-08
1.54644e-08
1.5131e-08
1.47925e-08
1.44358e-08
1.40783e-08
1.37035e-08
1.33286e-08
1.28618e-08
1.23774e-08
1.1855e-08
1.13103e-08
1.08058e-08
1.03593e-08
9.90171e-09
9.38997e-09
8.87823e-09
8.36228e-09
7.84592e-09
7.33223e-09
6.82004e-09
6.31266e-09
5.81311e-09
5.3166e-09
4.83737e-09
4.35813e-09
3.90483e-09
3.45234e-09
3.23809e-09
3.02762e-09
2.81715e-09
2.60668e-09
2.41072e-09
2.21752e-09
2.02433e-09
1.83611e-09
1.66072e-09
1.48532e-09
1.31196e-09
1.15351e-09
9.95068e-10
8.42719e-10
6.9813e-10
5.5586e-10
4.19553e-10
2.84219e-10
2.16644e-10
1.47252e-10
7.57613e-11
0
)


113
(
0
2.44971e-10
4.72382e-10
6.9688e-10
9.25379e-10
1.1606e-09
1.40475e-09
1.65987e-09
1.92306e-09
2.19332e-09
2.4752e-09
2.76351e-09
3.05686e-09
3.36027e-09
3.66713e-09
3.97896e-09
4.29613e-09
4.61546e-09
4.93883e-09
5.26378e-09
5.59014e-09
5.91749e-09
6.24476e-09
6.57146e-09
6.89649e-09
7.22048e-09
7.54013e-09
7.85723e-09
8.17066e-09
8.47774e-09
8.78122e-09
9.0771e-09
9.36612e-09
9.64884e-09
9.83746e-09
1.00547e-08
1.03099e-08
1.0552e-08
1.07874e-08
1.10106e-08
1.12215e-08
1.14247e-08
1.16112e-08
1.18994e-08
1.22853e-08
1.24724e-08
1.26216e-08
1.27703e-08
1.29011e-08
1.29938e-08
1.30539e-08
1.30771e-08
1.30859e-08
1.30851e-08
1.3134e-08
1.32064e-08
1.29736e-08
1.26162e-08
1.24465e-08
1.23612e-08
1.22548e-08
1.21354e-08
1.19984e-08
1.18452e-08
1.16794e-08
1.14932e-08
1.13102e-08
1.11388e-08
1.09642e-08
1.07117e-08
1.04592e-08
1.0184e-08
9.90447e-09
9.60941e-09
9.30525e-09
8.99216e-09
8.66621e-09
8.33709e-09
7.99252e-09
7.64795e-09
7.2897e-09
6.9301e-09
6.56346e-09
6.19286e-09
5.81976e-09
5.44257e-09
5.0651e-09
4.68601e-09
4.30692e-09
3.93063e-09
3.55443e-09
3.36911e-09
3.18467e-09
3.00023e-09
2.81579e-09
2.63578e-09
2.45662e-09
2.27745e-09
2.09988e-09
1.92639e-09
1.75291e-09
1.57993e-09
1.41073e-09
1.24152e-09
1.07269e-09
9.04331e-10
7.34907e-10
5.62731e-10
3.85335e-10
2.94912e-10
2.00121e-10
1.02457e-10
0
)


113
(
0
2.90333e-10
5.56796e-10
8.0845e-10
1.05231e-09
1.29165e-09
1.52843e-09
1.76437e-09
2.00037e-09
2.23658e-09
2.47363e-09
2.71116e-09
2.94908e-09
3.18744e-09
3.42569e-09
3.6638e-09
3.90104e-09
4.13773e-09
4.37276e-09
4.60627e-09
4.83843e-09
5.06723e-09
5.28323e-09
5.4639e-09
5.66401e-09
5.87491e-09
6.07888e-09
6.27962e-09
6.47573e-09
6.66501e-09
6.85064e-09
7.02898e-09
7.20129e-09
7.36954e-09
7.52751e-09
7.68074e-09
7.82768e-09
7.96481e-09
8.09695e-09
8.22029e-09
8.33501e-09
8.4443e-09
8.5421e-09
8.63282e-09
8.71675e-09
8.78824e-09
8.85564e-09
8.90907e-09
8.9572e-09
8.99405e-09
9.02279e-09
9.0424e-09
9.05131e-09
9.05311e-09
9.04235e-09
9.0257e-09
8.99553e-09
8.95986e-09
8.91073e-09
8.85555e-09
8.78811e-09
8.71316e-09
8.62785e-09
8.533e-09
8.43061e-09
8.31592e-09
8.19693e-09
8.06269e-09
7.92768e-09
7.77432e-09
7.62095e-09
7.45206e-09
7.28021e-09
7.09724e-09
6.90775e-09
6.71141e-09
6.50525e-09
6.30278e-09
6.11836e-09
5.93394e-09
5.69695e-09
5.45476e-09
5.20535e-09
4.95187e-09
4.69479e-09
4.43184e-09
4.16775e-09
3.89724e-09
3.62672e-09
3.35057e-09
3.07425e-09
2.9343e-09
2.79378e-09
2.65327e-09
2.51275e-09
2.37021e-09
2.22729e-09
2.08437e-09
1.94052e-09
1.79427e-09
1.64802e-09
1.50115e-09
1.34975e-09
1.19834e-09
1.04363e-09
8.84696e-10
7.23088e-10
5.54594e-10
3.79363e-10
2.89651e-10
1.95793e-10
9.96498e-11
0
)


113
(
0
2.49023e-10
4.80553e-10
6.97646e-10
9.0427e-10
1.10243e-09
1.29296e-09
1.47651e-09
1.65565e-09
1.8311e-09
2.001e-09
2.16789e-09
2.33243e-09
2.492e-09
2.64963e-09
2.80445e-09
2.9555e-09
3.10481e-09
3.25017e-09
3.39294e-09
3.53342e-09
3.66935e-09
3.80341e-09
3.93358e-09
4.06026e-09
4.18486e-09
4.30389e-09
4.42048e-09
4.53358e-09
4.64178e-09
4.74741e-09
4.84803e-09
4.94463e-09
5.03853e-09
5.12579e-09
5.21005e-09
5.29035e-09
5.36459e-09
5.43579e-09
5.50165e-09
5.56238e-09
5.61989e-09
5.67065e-09
5.71731e-09
5.76002e-09
5.79562e-09
5.82887e-09
5.85421e-09
5.87656e-09
5.89257e-09
5.90406e-09
5.91044e-09
5.91089e-09
5.90738e-09
5.89694e-09
5.88322e-09
5.86205e-09
5.83784e-09
5.8062e-09
5.77121e-09
5.72945e-09
5.68352e-09
5.63184e-09
5.57486e-09
5.51366e-09
5.44558e-09
5.37507e-09
5.29595e-09
5.2164e-09
5.12634e-09
5.03629e-09
4.93721e-09
4.83641e-09
4.72899e-09
4.61769e-09
4.50219e-09
4.38065e-09
4.25742e-09
4.12591e-09
3.99441e-09
3.85408e-09
3.71288e-09
3.56566e-09
3.41506e-09
3.26095e-09
3.10114e-09
2.93995e-09
2.77094e-09
2.60192e-09
2.42369e-09
2.24517e-09
2.15201e-09
2.05762e-09
1.96324e-09
1.86885e-09
1.76964e-09
1.66951e-09
1.56939e-09
1.46742e-09
1.36071e-09
1.25401e-09
1.14641e-09
1.03223e-09
9.18041e-10
8.00289e-10
6.77996e-10
5.53442e-10
4.23072e-10
2.87981e-10
2.18998e-10
1.47477e-10
7.46761e-11
0
)


113
(
0
1.47549e-10
2.87631e-10
4.20588e-10
5.47638e-10
6.69369e-10
7.85783e-10
8.967e-10
1.00383e-09
1.10769e-09
1.20627e-09
1.30184e-09
1.39504e-09
1.48316e-09
1.56933e-09
1.65267e-09
1.73237e-09
1.81043e-09
1.88489e-09
1.95715e-09
2.02747e-09
2.0942e-09
2.15953e-09
2.222e-09
2.28209e-09
2.34075e-09
2.39583e-09
2.44943e-09
2.50091e-09
2.54957e-09
2.59677e-09
2.64122e-09
2.68353e-09
2.72442e-09
2.76191e-09
2.79791e-09
2.83195e-09
2.86306e-09
2.89272e-09
2.91986e-09
2.94462e-09
2.96789e-09
2.9881e-09
3.00646e-09
3.02305e-09
3.03649e-09
3.0489e-09
3.05784e-09
3.06549e-09
3.07038e-09
3.07332e-09
3.07406e-09
3.07225e-09
3.06875e-09
3.06228e-09
3.0544e-09
3.04334e-09
3.03097e-09
3.01541e-09
2.99843e-09
2.9785e-09
2.95679e-09
2.93256e-09
2.90602e-09
2.87761e-09
2.84615e-09
2.81359e-09
2.77714e-09
2.74048e-09
2.69895e-09
2.65742e-09
2.61153e-09
2.56482e-09
2.51478e-09
2.46278e-09
2.40855e-09
2.35111e-09
2.2927e-09
2.22959e-09
2.16649e-09
2.09797e-09
2.02892e-09
1.95586e-09
1.88054e-09
1.80268e-09
1.7207e-09
1.63764e-09
1.54853e-09
1.45941e-09
1.36287e-09
1.2661e-09
1.21461e-09
1.16213e-09
1.10966e-09
1.05718e-09
1.00109e-09
9.44308e-10
8.87527e-10
8.29504e-10
7.68288e-10
7.07071e-10
6.45324e-10
5.7969e-10
5.14056e-10
4.46592e-10
3.76801e-10
3.05993e-10
2.32573e-10
1.57256e-10
1.19027e-10
7.98601e-11
4.02478e-11
0
)


113
(
0
1.31021e-11
2.589e-11
3.83483e-11
5.05076e-11
6.23772e-11
7.39353e-11
8.5141e-11
9.60854e-11
1.06798e-10
1.17109e-10
1.27171e-10
1.37038e-10
1.46458e-10
1.55694e-10
1.64665e-10
1.73279e-10
1.81726e-10
1.89804e-10
1.97648e-10
2.05286e-10
2.12532e-10
2.19623e-10
2.26396e-10
2.329e-10
2.39244e-10
2.45181e-10
2.50949e-10
2.56474e-10
2.61676e-10
2.66713e-10
2.71434e-10
2.75912e-10
2.80228e-10
2.84159e-10
2.87921e-10
2.91462e-10
2.94675e-10
2.97726e-10
3.00497e-10
3.03004e-10
3.05347e-10
3.07352e-10
3.09157e-10
3.10768e-10
3.12036e-10
3.13193e-10
3.13975e-10
3.14618e-10
3.14965e-10
3.15102e-10
3.15005e-10
3.14635e-10
3.14084e-10
3.13216e-10
3.12199e-10
3.10843e-10
3.09347e-10
3.07512e-10
3.05524e-10
3.03223e-10
3.00731e-10
2.9797e-10
2.94962e-10
2.91753e-10
2.88218e-10
2.84566e-10
2.80495e-10
2.76402e-10
2.71785e-10
2.67168e-10
2.62084e-10
2.56912e-10
2.51383e-10
2.45646e-10
2.39672e-10
2.33358e-10
2.26944e-10
2.20041e-10
2.13137e-10
2.05684e-10
1.98177e-10
1.90277e-10
1.82156e-10
1.738e-10
1.65059e-10
1.56225e-10
1.46864e-10
1.37502e-10
1.27546e-10
1.17572e-10
1.12359e-10
1.07075e-10
1.01791e-10
9.65075e-11
9.09887e-11
8.54253e-11
7.98619e-11
7.42268e-11
6.84074e-11
6.25881e-11
5.67416e-11
5.06959e-11
4.46503e-11
3.85208e-11
3.22847e-11
2.60064e-11
1.96197e-11
1.31602e-11
9.9088e-12
6.62343e-12
3.32257e-12
0
)

)


10
(

113
(
0
3.22066e-31
9.77572e-30
2.61127e-28
2.65036e-27
2.05839e-26
1.38599e-25
8.14824e-25
4.02179e-24
1.61147e-23
5.28284e-23
1.48756e-22
3.83311e-22
9.46987e-22
2.26996e-21
5.59908e-21
1.55306e-20
4.22204e-20
1.10065e-19
2.71793e-19
6.33004e-19
1.39208e-18
2.90966e-18
6.30502e-18
1.29578e-17
2.54092e-17
4.7885e-17
8.87014e-17
1.80444e-16
5.99641e-16
4.1817e-15
3.81917e-14
3.3615e-13
2.64849e-12
1.89597e-11
1.38706e-10
8.68611e-10
4.30008e-09
1.6505e-08
4.85287e-08
1.09697e-07
1.94076e-07
2.75844e-07
3.30423e-07
3.49271e-07
3.38816e-07
3.11976e-07
2.8047e-07
2.51863e-07
2.2903e-07
2.11483e-07
1.98136e-07
1.87587e-07
1.78572e-07
1.70056e-07
1.60819e-07
1.50229e-07
1.38285e-07
1.25046e-07
1.10409e-07
9.54078e-08
8.05662e-08
6.62853e-08
5.36803e-08
4.22442e-08
3.23287e-08
2.4576e-08
1.78397e-08
1.28502e-08
9.0735e-09
6.00004e-09
4.2302e-09
2.71985e-09
1.83192e-09
1.17545e-09
7.46779e-10
4.85757e-10
2.89609e-10
1.93595e-10
1.11362e-10
7.4815e-11
4.31765e-11
2.788e-11
1.6048e-11
9.72692e-12
5.5125e-12
2.9941e-12
1.66804e-12
7.39418e-13
4.27698e-13
1.84713e-13
1.3902e-13
9.33271e-14
5.9054e-14
4.54388e-14
3.18236e-14
2.11148e-14
1.64147e-14
1.17146e-14
8.45503e-15
6.4225e-15
4.42675e-15
3.3623e-15
2.29784e-15
1.60708e-15
9.83174e-16
5.99944e-16
2.96636e-16
1.06139e-16
4.51263e-17
1.54966e-17
1.94074e-18
0
)


113
(
0
1.03426e-24
3.04578e-23
7.09396e-22
7.4486e-21
5.42014e-20
4.1492e-19
2.75238e-18
1.54033e-17
7.84195e-17
3.74018e-16
1.52503e-15
5.79022e-15
1.97973e-14
5.95385e-14
1.71925e-13
5.23517e-13
1.46228e-12
3.78866e-12
9.16513e-12
2.08013e-11
4.4507e-11
9.04593e-11
1.88618e-10
3.71716e-10
6.95064e-10
1.24396e-09
2.14478e-09
3.58333e-09
5.78153e-09
8.977e-09
1.34685e-08
1.95724e-08
2.76249e-08
3.78633e-08
5.04849e-08
6.5402e-08
8.23928e-08
1.01006e-07
1.20635e-07
1.4054e-07
1.59759e-07
1.77602e-07
1.93077e-07
2.0566e-07
2.14944e-07
2.20667e-07
2.22919e-07
2.21797e-07
2.17706e-07
2.11207e-07
2.02776e-07
1.92915e-07
1.8204e-07
1.70486e-07
1.58492e-07
1.46369e-07
1.34233e-07
1.22154e-07
1.10285e-07
9.87396e-08
8.75132e-08
7.6707e-08
6.66557e-08
5.71226e-08
4.8261e-08
4.04715e-08
3.32413e-08
2.70356e-08
2.17072e-08
1.68873e-08
1.33037e-08
1.00448e-08
7.60797e-09
5.60818e-09
4.03844e-09
2.91973e-09
1.97554e-09
1.41154e-09
9.04928e-10
6.33399e-10
3.94213e-10
2.62697e-10
1.59128e-10
1.00013e-10
5.97108e-11
3.45545e-11
2.05734e-11
1.03174e-11
6.36582e-12
3.17861e-12
2.43398e-12
1.68936e-12
1.1131e-12
8.41417e-13
5.69736e-13
3.55823e-13
2.61344e-13
1.66865e-13
1.05147e-13
7.13364e-14
3.83581e-14
2.64476e-14
1.4537e-14
8.98183e-15
4.5512e-15
2.67548e-15
1.30936e-15
5.67198e-16
3.26971e-16
1.76217e-16
6.88736e-17
0
)


113
(
0
5.83273e-13
2.00017e-12
5.1458e-12
1.09577e-11
2.11188e-11
3.82068e-11
6.6077e-11
1.10614e-10
1.77118e-10
2.74905e-10
4.12292e-10
6.03389e-10
8.66401e-10
1.21736e-09
1.67685e-09
2.30051e-09
3.09964e-09
4.09651e-09
5.31922e-09
6.7981e-09
8.56859e-09
1.06933e-08
1.32899e-08
1.63106e-08
1.97307e-08
2.35767e-08
2.78711e-08
3.26419e-08
3.79196e-08
4.37032e-08
4.99532e-08
5.66185e-08
6.35962e-08
7.07001e-08
7.7992e-08
8.54228e-08
9.28363e-08
1.00174e-07
1.07294e-07
1.14093e-07
1.20456e-07
1.26262e-07
1.31528e-07
1.36062e-07
1.39837e-07
1.42792e-07
1.44854e-07
1.46093e-07
1.46441e-07
1.4587e-07
1.44368e-07
1.42029e-07
1.38942e-07
1.35168e-07
1.30634e-07
1.25506e-07
1.19933e-07
1.13998e-07
1.07704e-07
1.01182e-07
9.45258e-08
8.77557e-08
8.09862e-08
7.42824e-08
6.76848e-08
6.13671e-08
5.52229e-08
4.94247e-08
4.39757e-08
3.8729e-08
3.40719e-08
2.96023e-08
2.56216e-08
2.19703e-08
1.86433e-08
1.57806e-08
1.30977e-08
1.09468e-08
8.88881e-09
7.31348e-09
5.8356e-09
4.68211e-09
3.6604e-09
2.84832e-09
2.18056e-09
1.62897e-09
1.22435e-09
8.68717e-10
6.41205e-10
4.41075e-10
3.72489e-10
3.03903e-10
2.45033e-10
2.03738e-10
1.62443e-10
1.26901e-10
1.03252e-10
7.96028e-11
6.13048e-11
4.7565e-11
3.40462e-11
2.61231e-11
1.82e-11
1.307e-11
8.43987e-12
5.62349e-12
3.33493e-12
1.75168e-12
1.14948e-12
7.01613e-13
3.27523e-13
0
)


113
(
0
1.16674e-10
2.64628e-10
4.6724e-10
7.28569e-10
1.05868e-09
1.46866e-09
1.96945e-09
2.57157e-09
3.28486e-09
4.11852e-09
5.08117e-09
6.18189e-09
7.42901e-09
8.83131e-09
1.04323e-08
1.22041e-08
1.40881e-08
1.61703e-08
1.8443e-08
2.08746e-08
2.34758e-08
2.6266e-08
2.92733e-08
3.23698e-08
3.55452e-08
3.88609e-08
4.24024e-08
4.60467e-08
4.96571e-08
5.33341e-08
5.69767e-08
6.05909e-08
6.43329e-08
6.80516e-08
7.17219e-08
7.52493e-08
7.85613e-08
8.17823e-08
8.48344e-08
8.76668e-08
9.02971e-08
9.26733e-08
9.47686e-08
9.66373e-08
9.8193e-08
9.94649e-08
1.00361e-07
1.00917e-07
1.01267e-07
1.01248e-07
1.00836e-07
1.00086e-07
9.90476e-08
9.77504e-08
9.6079e-08
9.40898e-08
9.19051e-08
8.9564e-08
8.69556e-08
8.4108e-08
8.10727e-08
7.78223e-08
7.44452e-08
7.10229e-08
6.75558e-08
6.40164e-08
6.04446e-08
5.68189e-08
5.3218e-08
4.96316e-08
4.61533e-08
4.27088e-08
3.93523e-08
3.60775e-08
3.28831e-08
2.98933e-08
2.69826e-08
2.4359e-08
2.17844e-08
1.94564e-08
1.71904e-08
1.51303e-08
1.31739e-08
1.13825e-08
9.76008e-09
8.2738e-09
7.01311e-09
5.82761e-09
4.85191e-09
3.93674e-09
3.54953e-09
3.16232e-09
2.80475e-09
2.50079e-09
2.19682e-09
1.91486e-09
1.67837e-09
1.44188e-09
1.23413e-09
1.05086e-09
8.6914e-10
7.26871e-10
5.84602e-10
4.68696e-10
3.57551e-10
2.68889e-10
1.88309e-10
1.18833e-10
8.72594e-11
5.80105e-11
2.93495e-11
0
)


113
(
0
6.51364e-10
1.29973e-09
2.01367e-09
2.80603e-09
3.68608e-09
4.65853e-09
5.72441e-09
6.88274e-09
8.13151e-09
9.4683e-09
1.08905e-08
1.23955e-08
1.39803e-08
1.56419e-08
1.73821e-08
1.91999e-08
2.10815e-08
2.30221e-08
2.50166e-08
2.70596e-08
2.91451e-08
3.12669e-08
3.34209e-08
3.56167e-08
3.78388e-08
4.01456e-08
4.23602e-08
4.45382e-08
4.67816e-08
4.88598e-08
5.09782e-08
5.30788e-08
5.4964e-08
5.69413e-08
5.8849e-08
6.05536e-08
6.20738e-08
6.35663e-08
6.5098e-08
6.65948e-08
6.76984e-08
6.87999e-08
6.9753e-08
7.06087e-08
7.13141e-08
7.18955e-08
7.23327e-08
7.26168e-08
7.27564e-08
7.28187e-08
7.26723e-08
7.23635e-08
7.19235e-08
7.13171e-08
7.0632e-08
6.98352e-08
6.88938e-08
6.77938e-08
6.64757e-08
6.51616e-08
6.37878e-08
6.22922e-08
6.06577e-08
5.89752e-08
5.72462e-08
5.52082e-08
5.31228e-08
5.10676e-08
4.91954e-08
4.74295e-08
4.53035e-08
4.304e-08
4.04103e-08
3.80112e-08
3.5839e-08
3.38545e-08
3.19427e-08
2.98823e-08
2.78124e-08
2.58095e-08
2.38282e-08
2.19187e-08
2.00521e-08
1.82537e-08
1.65243e-08
1.48505e-08
1.32768e-08
1.17364e-08
1.03325e-08
8.97023e-09
8.3376e-09
7.70497e-09
7.09607e-09
6.53011e-09
5.96414e-09
5.4187e-09
4.91571e-09
4.41273e-09
3.94094e-09
3.49572e-09
3.05244e-09
2.65805e-09
2.26366e-09
1.90482e-09
1.55239e-09
1.23014e-09
9.17137e-10
6.15045e-10
4.65903e-10
3.15446e-10
1.61421e-10
0
)


113
(
0
1.18988e-09
2.2862e-09
3.36505e-09
4.45894e-09
5.58281e-09
6.74438e-09
7.94621e-09
9.18755e-09
1.04658e-08
1.17777e-08
1.31194e-08
1.44874e-08
1.58781e-08
1.7288e-08
1.87146e-08
2.0154e-08
2.1601e-08
2.30522e-08
2.45045e-08
2.59546e-08
2.73992e-08
2.88349e-08
3.02559e-08
3.16605e-08
3.30454e-08
3.44075e-08
3.57435e-08
3.70503e-08
3.83247e-08
3.95638e-08
4.07644e-08
4.19236e-08
4.30227e-08
4.37725e-08
4.47841e-08
4.57443e-08
4.66512e-08
4.75029e-08
4.82976e-08
4.90337e-08
4.97079e-08
5.03197e-08
5.09984e-08
5.23834e-08
5.29322e-08
5.33741e-08
5.37663e-08
5.40509e-08
5.41829e-08
5.42366e-08
5.41912e-08
5.40088e-08
5.37439e-08
5.35192e-08
5.32445e-08
5.20966e-08
5.08171e-08
4.97402e-08
4.9118e-08
4.84292e-08
4.76891e-08
4.68909e-08
4.60178e-08
4.5103e-08
4.41371e-08
4.32717e-08
4.23506e-08
4.12159e-08
4.00394e-08
3.88387e-08
3.75803e-08
3.63065e-08
3.49936e-08
3.36585e-08
3.23017e-08
3.09201e-08
2.95289e-08
2.81159e-08
2.66998e-08
2.52716e-08
2.38432e-08
2.24135e-08
2.09876e-08
1.95679e-08
1.81599e-08
1.67613e-08
1.53867e-08
1.40201e-08
1.26946e-08
1.13842e-08
1.07465e-08
1.01088e-08
9.48095e-09
8.87089e-09
8.26083e-09
7.66004e-09
7.07842e-09
6.49681e-09
5.92954e-09
5.3745e-09
4.82027e-09
4.2867e-09
3.75313e-09
3.23079e-09
2.71042e-09
2.19279e-09
1.67121e-09
1.14026e-09
8.69492e-10
5.89531e-10
3.01027e-10
0
)


113
(
0
1.32413e-09
2.53153e-09
3.66734e-09
4.76405e-09
5.83615e-09
6.89347e-09
7.94259e-09
8.98742e-09
1.003e-08
1.1071e-08
1.21103e-08
1.31475e-08
1.41816e-08
1.52116e-08
1.62357e-08
1.72517e-08
1.82589e-08
1.92561e-08
2.02418e-08
2.12146e-08
2.21733e-08
2.31163e-08
2.37663e-08
2.46066e-08
2.54589e-08
2.6288e-08
2.70925e-08
2.78713e-08
2.86231e-08
2.93469e-08
3.00415e-08
3.07059e-08
3.13391e-08
3.19402e-08
3.25076e-08
3.30411e-08
3.35405e-08
3.4005e-08
3.4434e-08
3.4827e-08
3.51823e-08
3.55001e-08
3.57803e-08
3.60228e-08
3.62274e-08
3.63939e-08
3.65223e-08
3.66097e-08
3.66567e-08
3.66652e-08
3.66349e-08
3.65667e-08
3.64614e-08
3.63198e-08
3.61322e-08
3.59065e-08
3.56461e-08
3.53529e-08
3.50155e-08
3.46397e-08
3.42341e-08
3.37942e-08
3.33091e-08
3.27981e-08
3.22553e-08
3.16695e-08
3.10626e-08
3.04184e-08
2.97431e-08
2.90496e-08
2.83101e-08
2.75573e-08
2.67703e-08
2.59616e-08
2.51315e-08
2.42727e-08
2.34026e-08
2.2633e-08
2.18582e-08
2.08981e-08
1.99326e-08
1.89494e-08
1.79592e-08
1.69579e-08
1.59495e-08
1.49353e-08
1.39152e-08
1.28931e-08
1.18675e-08
1.08416e-08
1.03284e-08
9.81519e-09
9.3019e-09
8.78849e-09
8.27508e-09
7.76118e-09
7.24624e-09
6.73131e-09
6.21386e-09
5.69429e-09
5.17435e-09
4.64535e-09
4.11636e-09
3.57444e-09
3.03011e-09
2.46531e-09
1.888e-09
1.28987e-09
9.82465e-10
6.6421e-10
3.37568e-10
0
)


113
(
0
1.07124e-09
2.06283e-09
2.98966e-09
3.86968e-09
4.71009e-09
5.51676e-09
6.2948e-09
7.04838e-09
7.7807e-09
8.49418e-09
9.19056e-09
9.87114e-09
1.05368e-08
1.11882e-08
1.18247e-08
1.24458e-08
1.30533e-08
1.36471e-08
1.42272e-08
1.47932e-08
1.5345e-08
1.58821e-08
1.6402e-08
1.69066e-08
1.73956e-08
1.78687e-08
1.83254e-08
1.87654e-08
1.91883e-08
1.95938e-08
1.99814e-08
2.03508e-08
2.07018e-08
2.1034e-08
2.13466e-08
2.164e-08
2.19139e-08
2.21683e-08
2.24028e-08
2.26174e-08
2.28112e-08
2.29845e-08
2.31373e-08
2.32696e-08
2.33814e-08
2.34726e-08
2.35434e-08
2.3592e-08
2.3619e-08
2.36252e-08
2.36106e-08
2.35757e-08
2.35207e-08
2.34462e-08
2.33467e-08
2.32265e-08
2.30875e-08
2.29304e-08
2.27491e-08
2.25465e-08
2.23272e-08
2.20888e-08
2.18247e-08
2.15458e-08
2.12487e-08
2.09265e-08
2.05918e-08
2.02349e-08
1.98591e-08
1.94723e-08
1.90567e-08
1.86325e-08
1.81863e-08
1.77255e-08
1.72502e-08
1.67545e-08
1.62509e-08
1.57222e-08
1.5189e-08
1.46313e-08
1.40677e-08
1.34843e-08
1.28915e-08
1.22836e-08
1.16623e-08
1.10303e-08
1.03805e-08
9.72466e-09
9.04469e-09
8.35689e-09
8.00385e-09
7.65082e-09
7.29272e-09
6.92546e-09
6.5582e-09
6.18571e-09
5.80241e-09
5.41911e-09
5.02597e-09
4.62446e-09
4.22217e-09
3.80026e-09
3.37835e-09
2.93763e-09
2.49346e-09
2.02689e-09
1.54919e-09
1.05418e-09
8.00368e-10
5.39201e-10
2.7281e-10
0
)


113
(
0
6.04768e-10
1.17758e-09
1.7203e-09
2.23838e-09
2.73324e-09
3.20623e-09
3.65891e-09
4.09287e-09
4.50956e-09
4.91024e-09
5.29597e-09
5.66767e-09
6.02607e-09
6.37183e-09
6.70465e-09
7.02444e-09
7.33313e-09
7.63104e-09
7.91844e-09
8.19558e-09
8.46266e-09
8.7198e-09
8.96574e-09
9.20221e-09
9.4293e-09
9.6471e-09
9.85568e-09
1.00551e-08
1.02454e-08
1.04266e-08
1.05987e-08
1.07618e-08
1.09159e-08
1.1061e-08
1.11969e-08
1.13239e-08
1.1442e-08
1.15513e-08
1.16517e-08
1.17433e-08
1.18258e-08
1.18993e-08
1.1964e-08
1.20199e-08
1.2067e-08
1.21053e-08
1.21349e-08
1.21552e-08
1.21663e-08
1.21687e-08
1.21622e-08
1.21472e-08
1.21237e-08
1.20919e-08
1.20496e-08
1.19984e-08
1.19392e-08
1.18722e-08
1.17948e-08
1.17081e-08
1.16141e-08
1.15117e-08
1.13979e-08
1.12775e-08
1.11487e-08
1.10083e-08
1.08622e-08
1.07055e-08
1.05396e-08
1.03683e-08
1.01825e-08
9.99225e-09
9.79039e-09
9.58044e-09
9.36253e-09
9.13264e-09
8.89812e-09
8.64793e-09
8.39481e-09
8.12513e-09
7.85113e-09
7.56275e-09
7.26681e-09
6.95886e-09
6.63951e-09
6.31099e-09
5.96622e-09
5.61604e-09
5.2432e-09
4.86308e-09
4.66452e-09
4.46596e-09
4.2629e-09
4.0517e-09
3.84051e-09
3.62505e-09
3.40077e-09
3.17648e-09
2.94501e-09
2.7074e-09
2.4693e-09
2.21851e-09
1.96771e-09
1.7062e-09
1.44272e-09
1.1679e-09
8.87996e-10
6.00447e-10
4.54043e-10
3.04758e-10
1.5353e-10
0
)


113
(
0
5.16425e-11
1.02022e-10
1.51089e-10
1.98984e-10
2.45685e-10
2.91173e-10
3.3545e-10
3.78533e-10
4.20442e-10
4.61201e-10
5.0083e-10
5.39349e-10
5.76772e-10
6.13113e-10
6.48306e-10
6.82302e-10
7.15244e-10
7.47141e-10
7.78001e-10
8.07827e-10
8.36624e-10
8.64392e-10
8.90982e-10
9.16567e-10
9.4115e-10
9.64733e-10
9.8732e-10
1.00891e-09
1.02951e-09
1.04913e-09
1.06775e-09
1.0854e-09
1.10206e-09
1.11775e-09
1.13244e-09
1.14616e-09
1.15892e-09
1.17073e-09
1.18159e-09
1.1915e-09
1.20043e-09
1.20841e-09
1.21545e-09
1.22154e-09
1.2267e-09
1.23094e-09
1.23424e-09
1.23656e-09
1.23791e-09
1.23832e-09
1.23781e-09
1.23639e-09
1.23406e-09
1.23086e-09
1.22654e-09
1.22127e-09
1.21515e-09
1.20819e-09
1.20012e-09
1.19105e-09
1.18119e-09
1.17043e-09
1.15842e-09
1.14568e-09
1.13205e-09
1.11714e-09
1.10159e-09
1.08489e-09
1.06716e-09
1.04884e-09
1.02892e-09
1.0085e-09
9.86792e-10
9.64191e-10
9.4071e-10
9.15912e-10
8.90604e-10
8.63594e-10
8.36267e-10
8.07172e-10
7.77627e-10
7.46584e-10
7.14782e-10
6.81771e-10
6.47666e-10
6.12679e-10
5.76217e-10
5.39263e-10
5.00387e-10
4.60939e-10
4.40548e-10
4.20157e-10
3.99444e-10
3.78146e-10
3.56847e-10
3.3527e-10
3.13117e-10
2.90963e-10
2.68382e-10
2.45439e-10
2.22468e-10
1.98815e-10
1.75161e-10
1.50982e-10
1.26706e-10
1.01918e-10
7.69167e-11
5.16008e-11
3.88387e-11
2.59675e-11
1.3025e-11
0
)

)


10
(

113
(
0
5.2548e-28
1.43769e-26
2.01629e-25
1.75194e-24
1.29084e-23
8.3864e-23
4.59208e-22
1.98341e-21
6.56852e-21
1.74825e-20
3.89167e-20
7.6575e-20
1.39846e-19
2.48308e-19
4.68667e-19
8.89e-19
1.63769e-18
2.84417e-18
5.28583e-18
9.66308e-18
1.745e-17
3.12333e-17
5.50692e-17
9.59154e-17
2.35e-16
8.86667e-16
4.66583e-15
2.60625e-14
1.221e-13
5.811e-13
4.15582e-12
2.558e-11
1.3495e-10
6.32545e-10
2.70727e-09
9.80182e-09
3.02e-08
8.02e-08
1.91836e-07
3.70727e-07
6.136e-07
8.40273e-07
1.0208e-06
1.10818e-06
1.10818e-06
1.04e-06
9.34333e-07
8.19833e-07
7.04e-07
6.07077e-07
5.12667e-07
4.27923e-07
3.54429e-07
2.91571e-07
2.36143e-07
1.86e-07
1.41e-07
1.09067e-07
8.21313e-08
6.01938e-08
4.46688e-08
3.14688e-08
2.20313e-08
1.55353e-08
1.03e-08
7.50556e-09
4.97333e-09
3.49e-09
2.29778e-09
1.54222e-09
1.03063e-09
6.81684e-10
4.60947e-10
2.95158e-10
2.04e-10
1.315e-10
9.088e-11
5.823e-11
3.998e-11
2.533e-11
1.7168e-11
1.0628e-11
6.92842e-12
3.93895e-12
2.587e-12
1.417e-12
8.595e-13
4.03e-13
2.43e-13
1.15982e-13
9.09529e-14
6.59235e-14
4.42313e-14
3.58875e-14
2.75437e-14
1.92e-14
1.584e-14
1.248e-14
9.12e-15
7.21167e-15
5.30333e-15
3.90455e-15
2.84545e-15
1.94089e-15
1.26811e-15
7.41e-16
3.53e-16
1.33e-16
7.28125e-17
2.246e-17
3.18e-18
0
)


113
(
0
2.42596e-23
4.32552e-22
5.24534e-21
4.57963e-20
3.33269e-19
2.38694e-18
1.52171e-17
8.76879e-17
4.56162e-16
2.10002e-15
8.32132e-15
2.78355e-14
8.35609e-14
2.68004e-13
8.45113e-13
2.44749e-12
6.50341e-12
1.45652e-11
3.39006e-11
8.27848e-11
1.80659e-10
3.70449e-10
7.15768e-10
1.31453e-09
2.47713e-09
4.47003e-09
7.66808e-09
1.25511e-08
1.97102e-08
3.03697e-08
4.55273e-08
6.62363e-08
9.29068e-08
1.26043e-07
1.66534e-07
2.13939e-07
2.67585e-07
3.26192e-07
3.87716e-07
4.49022e-07
5.07482e-07
5.59502e-07
6.03361e-07
6.35622e-07
6.55476e-07
6.62395e-07
6.56185e-07
6.38297e-07
6.09535e-07
5.69752e-07
5.24858e-07
4.76018e-07
4.25302e-07
3.74103e-07
3.25042e-07
2.78353e-07
2.3442e-07
1.96581e-07
1.62213e-07
1.31315e-07
1.06569e-07
8.4319e-08
6.62971e-08
5.1872e-08
3.89885e-08
3.0332e-08
2.23068e-08
1.68064e-08
1.21689e-08
8.82574e-09
6.33743e-09
4.41901e-09
3.12318e-09
2.09419e-09
1.47627e-09
9.61115e-10
6.64489e-10
4.22494e-10
2.87349e-10
1.78916e-10
1.1969e-10
7.27651e-11
4.75882e-11
2.78483e-11
1.853e-11
1.03696e-11
6.64169e-12
3.59725e-12
2.27175e-12
1.18921e-12
9.31393e-13
6.73578e-13
4.4801e-13
3.5143e-13
2.5485e-13
1.5827e-13
1.22499e-13
8.67287e-14
5.09579e-14
3.76395e-14
2.43211e-14
1.57702e-14
1.03976e-14
6.23942e-15
3.90303e-15