/*--------------------------------*- C++ -*----------------------------------*\
| =========                 |                                                 |
| \\      /  F ield         | OpenFOAM: The Open Source CFD Toolbox           |
|  \\    /   O peration     | Version:  2.3.0                                 |
|   \\  /    A nd           | Web:      www.OpenFOAM.org                      |
|    \\/     M anipulation  |                                                 |
\*---------------------------------------------------------------------------*/
FoamFile
{
    version     2.0;
    format      ascii;
    class       dictionary;
    location    "constant";
    object      CH3;
}
// * * * * * * * * * * * * * * * * * * * * * * * * * * * * * * * * * * * * * //

CH3_table
13
(

10
(

113
(
0
4.18667e-29
2.08831e-29
3.7048e-29
5.01386e-29
7.39857e-29
1.32557e-28
3.1765e-28
8.93117e-28
2.09026e-27
6.95119e-27
2.23397e-26
4.6e-26
1.49145e-25
3.85205e-25
8.12534e-25
2.44009e-24
6.0261e-24
1.7709e-23
7.6135e-23
1.76012e-22
1.06076e-21
4.14247e-21
1.32289e-20
6.33148e-20
1.46863e-19
7.40031e-19
6.00745e-18
1.80012e-17
6.74287e-16
1.47967e-14
7.89717e-14
2.73813e-12
1.12345e-11
2.24461e-10
3.29994e-09
1.01696e-08
1.19763e-07
5.47424e-07
1.78603e-06
6.2265e-06
1.30025e-05
2.63565e-05
4.14509e-05
5.82174e-05
7.34272e-05
8.80089e-05
9.99084e-05
0.000111114
0.000120843
0.00012977
0.000137791
0.000144438
0.000150167
0.000154761
0.000158822
0.000162812
0.000166772
0.000170333
0.000173715
0.000177657
0.000181943
0.00018643
0.000191103
0.000195935
0.000201028
0.000205908
0.000210037
0.000214
0.000214
0.000214
0.000207919
0.000200679
0.000187216
0.000170099
0.000150665
0.000127897
0.000105608
8.56518e-05
6.5696e-05
5.17132e-05
3.83211e-05
2.85442e-05
2.08009e-05
1.44255e-05
1.0282e-05
6.46275e-06
4.4811e-06
2.49945e-06
1.63662e-06
8.08388e-07
6.08571e-07
4.76429e-07
3.44286e-07
2.12143e-07
1.59594e-07
1.22207e-07
8.48191e-08
5.46038e-08
4.28316e-08
3.10595e-08
2.01506e-08
1.55722e-08
1.09939e-08
7.48278e-09
5.33e-09
3.43778e-09
2.21556e-09
1.25373e-09
8.466e-10
5.166e-10
2.25619e-10
0
)


113
(
0
3.13198e-23
1.24299e-21
3.07753e-20
3.09228e-19
2.88705e-18
1.58445e-17
1.3088e-16
9.38451e-16
3.31685e-15
1.82264e-14
9.28999e-14
2.14531e-13
1.10265e-12
3.85517e-12
9.2906e-12
3.61804e-11
8.66608e-11
2.26131e-10
6.39688e-10
1.2963e-09
3.57895e-09
7.45052e-09
1.53302e-08
3.26461e-08
5.60063e-08
1.15458e-07
2.08431e-07
3.49643e-07
6.19012e-07
9.8155e-07
1.57406e-06
2.4644e-06
3.55949e-06
5.35612e-06
7.57543e-06
1.0355e-05
1.41612e-05
1.85172e-05
2.38699e-05
3.01673e-05
3.70361e-05
4.49825e-05
5.3414e-05
6.23114e-05
7.1637e-05
8.1045e-05
9.04603e-05
9.97227e-05
0.00010866
0.0001172
0.00012529
0.000132788
0.000139891
0.000146336
0.000152471
0.000158015
0.000163317
0.000168146
0.000172763
0.000176954
0.000180885
0.000184336
0.000187345
0.000189791
0.000191317
0.000192332
0.000191536
0.000190612
0.000186634
0.000182656
0.000175574
0.000167901
0.000158082
0.000147003
0.000134997
0.000121659
0.000108251
9.45027e-05
8.07546e-05
6.83756e-05
5.6132e-05
4.56396e-05
3.61323e-05
2.77792e-05
2.13094e-05
1.52298e-05
1.13618e-05
7.49386e-06
5.37711e-06
3.31451e-06
2.69359e-06
2.20225e-06
1.71092e-06
1.21959e-06
9.63006e-07
7.51135e-07
5.39263e-07
3.63261e-07
2.79496e-07
1.95731e-07
1.18268e-07
8.70233e-08
5.57785e-08
3.30781e-08
2.12525e-08
1.13503e-08
6.39384e-09
3.06681e-09
1.86127e-09
1.09585e-09
4.73281e-10
0
)


113
(
0
8.17498e-11
2.84966e-10
7.43307e-10
1.62121e-09
3.14392e-09
5.70579e-09
1.05813e-08
1.81129e-08
2.83449e-08
4.53891e-08
7.07757e-08
1.02717e-07
1.57153e-07
2.25448e-07
3.13686e-07
4.46814e-07
6.0424e-07
8.25508e-07
1.10667e-06
1.44096e-06
1.89452e-06
2.4154e-06
3.09013e-06
3.91849e-06
4.83865e-06
6.02331e-06
7.3491e-06
8.87796e-06
1.07112e-05
1.27128e-05
1.50611e-05
1.76862e-05
2.04983e-05
2.38017e-05
2.73144e-05
3.11042e-05
3.53115e-05
3.97135e-05
4.44428e-05
4.94625e-05
5.46559e-05
6.01676e-05
6.58183e-05
7.16026e-05
7.75751e-05
8.35898e-05
8.96554e-05
9.57157e-05
0.000101765
0.000107703
0.000113515
0.000119106
0.000124551
0.000129609
0.000134485
0.00013883
0.00014296
0.000146453
0.00014966
0.000152143
0.000154184
0.000155558
0.000156317
0.000156527
0.000155843
0.000154823
0.000152615
0.000150344
0.000146593
0.000142842
0.000137892
0.000132714
0.000126768
0.000120371
0.000113603
0.000106298
9.89171e-05
9.11599e-05
8.34027e-05
7.56306e-05
6.7857e-05
6.0394e-05
5.31058e-05
4.6151e-05
3.97403e-05
3.3487e-05
2.81257e-05
2.27643e-05
1.86429e-05
1.45599e-05
1.29295e-05
1.14289e-05
9.92839e-06
8.42783e-06
7.31987e-06
6.28669e-06
5.2535e-06
4.31723e-06
3.63015e-06
2.94307e-06
2.28602e-06
1.8492e-06
1.41239e-06
1.04518e-06
7.66562e-07
5.15065e-07
3.33303e-07
1.89235e-07
1.28156e-07
8.13982e-08
3.92585e-08
0
)


113
(
0
3.28918e-08
7.58148e-08
1.35959e-07
2.1564e-07
3.17567e-07
4.47399e-07
6.15962e-07
8.1868e-07
1.0535e-06
1.35466e-06
1.70519e-06
2.09451e-06
2.60073e-06
3.14989e-06
3.76081e-06
4.4969e-06
5.29478e-06
6.24162e-06
7.27153e-06
8.37511e-06
9.66328e-06
1.10284e-05
1.25541e-05
1.4231e-05
1.5997e-05
1.79558e-05
2.00317e-05
2.22763e-05
2.46795e-05
2.71743e-05
2.98646e-05
3.26748e-05
3.55664e-05
3.86972e-05
4.18953e-05
4.51826e-05
4.86281e-05
5.2139e-05
5.57507e-05
5.94208e-05
6.31251e-05
6.68882e-05
7.06549e-05
7.44251e-05
7.8166e-05
8.1892e-05
8.55429e-05
8.91486e-05
9.26583e-05
9.60348e-05
9.9261e-05
0.000102281
0.000105165
0.000107773
0.000110252
0.000112374
0.00011435
0.000115919
0.000117305
0.000118267
0.00011897
0.000119305
0.000119301
0.000119005
0.000118235
0.000117293
0.000115741
0.000114158
0.000111844
0.000109529
0.000106629
0.000103617
0.000100207
9.65641e-05
9.2703e-05
8.85278e-05
8.42915e-05
7.97564e-05
7.52214e-05
7.04162e-05
6.55844e-05
6.08034e-05
5.60509e-05
5.12868e-05
4.65035e-05
4.17615e-05
3.72527e-05
3.2744e-05
2.86782e-05
2.46261e-05
2.27829e-05
2.09975e-05
1.92121e-05
1.74266e-05
1.58547e-05
1.43233e-05
1.2792e-05
1.13293e-05
1.00432e-05
8.757e-06
7.49737e-06
6.43228e-06
5.36718e-06
4.38449e-06
3.50666e-06
2.66913e-06
1.93521e-06
1.26019e-06
9.3917e-07
6.3331e-07
3.24976e-07
0
)


113
(
0
3.04895e-07
6.17655e-07
9.70379e-07
1.37118e-06
1.82398e-06
2.33669e-06
2.92188e-06
3.56357e-06
4.25618e-06
5.04203e-06
5.88856e-06
6.78276e-06
7.79222e-06
8.85107e-06
9.981e-06
1.12104e-05
1.24862e-05
1.38671e-05
1.53149e-05
1.6822e-05
1.84409e-05
2.01035e-05
2.1855e-05
2.37079e-05
2.56198e-05
2.76302e-05
2.96639e-05
3.1731e-05
3.38928e-05
3.60914e-05
3.83391e-05
4.06125e-05
4.29037e-05
4.52585e-05
4.75993e-05
4.99216e-05
5.23013e-05
5.46832e-05
5.70436e-05
5.93581e-05
6.16518e-05
6.3944e-05
6.61813e-05
6.83657e-05
7.04573e-05
7.2528e-05
7.45735e-05
7.65255e-05
7.82792e-05
7.99678e-05
8.15831e-05
8.30495e-05
8.44165e-05
8.56109e-05
8.6724e-05
8.76259e-05
8.84415e-05
8.90416e-05
8.95449e-05
8.98217e-05
8.99598e-05
8.98877e-05
8.96217e-05
8.92201e-05
8.85974e-05
8.78906e-05
8.6886e-05
8.58637e-05
8.44176e-05
8.29716e-05
8.12094e-05
7.9387e-05
7.7304e-05
7.50679e-05
7.26855e-05
7.00927e-05
6.74698e-05
6.47e-05
6.19302e-05
5.89572e-05
5.59641e-05
5.28681e-05
4.97141e-05
4.65252e-05
4.32792e-05
4.003e-05
3.67629e-05
3.34958e-05
3.02749e-05
2.70554e-05
2.54872e-05
2.39322e-05
2.23771e-05
2.08221e-05
1.93343e-05
1.78594e-05
1.63845e-05
1.4937e-05
1.356e-05
1.2183e-05
1.08185e-05
9.54506e-06
8.27164e-06
7.03727e-06
5.85262e-06
4.68214e-06
3.54808e-06
2.41356e-06
1.84449e-06
1.25593e-06
6.47576e-07
0
)


113
(
0
8.09955e-07
1.57448e-06
2.34235e-06
3.13588e-06
3.96457e-06
4.83771e-06
5.76585e-06
6.73569e-06
7.74258e-06
8.81356e-06
9.92285e-06
1.10622e-05
1.22678e-05
1.34992e-05
1.47675e-05
1.60828e-05
1.74189e-05
1.87996e-05
2.02059e-05
2.16347e-05
2.31013e-05
2.45814e-05
2.60876e-05
2.76119e-05
2.91469e-05
3.07026e-05
3.22639e-05
3.38332e-05
3.54072e-05
3.69819e-05
3.85551e-05
4.0122e-05
4.16841e-05
4.31991e-05
4.47156e-05
4.62338e-05
4.77225e-05
4.91944e-05
5.06348e-05
5.20401e-05
5.34225e-05
5.47527e-05
5.62488e-05
5.79044e-05
5.93845e-05
6.07941e-05
6.19021e-05
6.29867e-05
6.40217e-05
6.49092e-05
6.56303e-05
6.62472e-05
6.67946e-05
6.7193e-05
6.75213e-05
6.71288e-05
6.64421e-05
6.6289e-05
6.63757e-05
6.63403e-05
6.62299e-05
6.60125e-05
6.56964e-05
6.52997e-05
6.47717e-05
6.42283e-05
6.36309e-05
6.30182e-05
6.20411e-05
6.1064e-05
5.99118e-05
5.87261e-05
5.74127e-05
5.60241e-05
5.45559e-05
5.29729e-05
5.13589e-05
4.95932e-05
4.78274e-05
4.59097e-05
4.39769e-05
4.19504e-05
3.98712e-05
3.77462e-05
3.55462e-05
3.33327e-05
3.10422e-05
2.87518e-05
2.64065e-05
2.40595e-05
2.28779e-05
2.16938e-05
2.05096e-05
1.93254e-05
1.81448e-05
1.69648e-05
1.57848e-05
1.4608e-05
1.34396e-05
1.22712e-05
1.11035e-05
9.9416e-06
8.77967e-06
7.61196e-06
6.4369e-06
5.24998e-06
4.03257e-06
2.77027e-06
2.1245e-06
1.44368e-06
7.40391e-07
0
)


113
(
0
1.17499e-06
2.26417e-06
3.3039e-06
4.32129e-06
5.3293e-06
6.33665e-06
7.35182e-06
8.37582e-06
9.40838e-06
1.0458e-05
1.15184e-05
1.25872e-05
1.36739e-05
1.47669e-05
1.58689e-05
1.69807e-05
1.80963e-05
1.92189e-05
2.03438e-05
2.14707e-05
2.2598e-05
2.36718e-05
2.45932e-05
2.5617e-05
2.6698e-05
2.7763e-05
2.88196e-05
2.9864e-05
3.08887e-05
3.19025e-05
3.28936e-05
3.38649e-05
3.48226e-05
3.57446e-05
3.66493e-05
3.7531e-05
3.83755e-05
3.92005e-05
3.99908e-05
4.07459e-05
4.14786e-05
4.21629e-05
4.28164e-05
4.34403e-05
4.40086e-05
4.45583e-05
4.50435e-05
4.55035e-05
4.59099e-05
4.62768e-05
4.65989e-05
4.68673e-05
4.70998e-05
4.72674e-05
4.74044e-05
4.74696e-05
4.75054e-05
4.74674e-05
4.73964e-05
4.72561e-05
4.70735e-05
4.68308e-05
4.65326e-05
4.61893e-05
4.57723e-05
4.53288e-05
4.47912e-05
4.42487e-05
4.35892e-05
4.29297e-05
4.21679e-05
4.13866e-05
4.05295e-05
3.96278e-05
3.86777e-05
3.76578e-05
3.66445e-05
3.56632e-05
3.46818e-05
3.34338e-05
3.21594e-05
3.08238e-05
2.94537e-05
2.80506e-05
2.65937e-05
2.51253e-05
2.35919e-05
2.20586e-05
2.0461e-05
1.88614e-05
1.80393e-05
1.721e-05
1.63808e-05
1.55516e-05
1.46979e-05
1.38397e-05
1.29814e-05
1.21136e-05
1.12216e-05
1.03295e-05
9.43221e-06
8.4961e-06
7.55998e-06
6.5985e-06
5.60474e-06
4.59165e-06
3.52887e-06
2.41896e-06
1.84937e-06
1.25126e-06
6.37548e-07
0
)


113
(
0
1.14548e-06
2.21621e-06
3.22604e-06
4.1924e-06
5.12416e-06
6.02538e-06
6.89942e-06
7.75675e-06
8.60025e-06
9.42359e-06
1.02364e-05
1.10409e-05
1.18283e-05
1.2609e-05
1.33802e-05
1.41384e-05
1.48906e-05
1.56289e-05
1.6358e-05
1.70789e-05
1.7783e-05
1.84801e-05
1.91625e-05
1.98313e-05
2.0492e-05
2.11305e-05
2.17591e-05
2.23734e-05
2.29672e-05
2.35503e-05
2.41119e-05
2.46562e-05
2.51887e-05
2.56918e-05
2.61815e-05
2.66534e-05
2.70976e-05
2.75277e-05
2.79331e-05
2.83143e-05
2.86803e-05
2.9014e-05
2.93279e-05
2.96227e-05
2.98824e-05
3.01307e-05
3.03394e-05
3.0533e-05
3.06946e-05
3.08329e-05
3.0945e-05
3.10263e-05
3.10869e-05
3.11109e-05
3.11176e-05
3.10842e-05
3.10346e-05
3.09444e-05
3.08361e-05
3.06903e-05
3.05214e-05
3.03202e-05
3.00891e-05
2.9834e-05
2.95395e-05
2.9231e-05
2.88724e-05
2.85112e-05
2.80881e-05
2.76649e-05
2.71874e-05
2.66996e-05
2.61712e-05
2.56191e-05
2.50408e-05
2.44248e-05
2.37981e-05
2.31186e-05
2.24392e-05
2.17026e-05
2.09603e-05
2.01781e-05
1.93736e-05
1.85455e-05
1.7679e-05
1.68031e-05
1.58739e-05
1.49448e-05
1.39527e-05
1.29586e-05
1.2435e-05
1.19032e-05
1.13713e-05
1.08395e-05
1.02753e-05
9.70505e-06
9.13478e-06
8.55241e-06
7.93892e-06
7.32543e-06
6.70614e-06
6.04434e-06
5.38255e-06
4.69803e-06
3.9846e-06
3.25692e-06
2.49259e-06
1.69871e-06
1.29278e-06
8.71035e-07
4.41339e-07
0
)


113
(
0
7.3913e-07
1.44242e-06
2.11156e-06
2.75244e-06
3.36788e-06
3.95794e-06
4.52178e-06
5.06759e-06
5.59783e-06
6.10294e-06
6.59372e-06
7.07326e-06
7.52867e-06
7.97476e-06
8.40741e-06
8.82275e-06
9.23026e-06
9.62059e-06
1.00004e-05
1.03709e-05
1.07243e-05
1.10708e-05
1.14037e-05
1.17249e-05
1.20394e-05
1.23364e-05
1.26262e-05
1.29056e-05
1.31712e-05
1.34297e-05
1.36746e-05
1.3909e-05
1.41362e-05
1.43466e-05
1.45495e-05
1.47425e-05
1.49209e-05
1.50919e-05
1.52501e-05
1.53963e-05
1.55349e-05
1.56578e-05
1.57712e-05
1.58756e-05
1.59636e-05
1.60463e-05
1.61109e-05
1.61688e-05
1.62122e-05
1.62454e-05
1.6267e-05
1.62752e-05
1.62743e-05
1.62576e-05
1.62335e-05
1.61922e-05
1.6144e-05
1.60785e-05
1.60053e-05
1.59162e-05
1.58173e-05
1.57047e-05
1.55794e-05
1.54438e-05
1.52915e-05
1.5133e-05
1.4953e-05
1.47718e-05
1.45634e-05
1.4355e-05
1.41221e-05
1.38846e-05
1.36283e-05
1.33609e-05
1.30809e-05
1.27825e-05
1.24787e-05
1.21479e-05
1.18172e-05
1.14554e-05
1.10905e-05
1.07024e-05
1.03013e-05
9.88552e-06
9.44583e-06
8.99994e-06
8.51885e-06
8.03777e-06
7.51353e-06
6.98795e-06
6.70709e-06
6.42052e-06
6.13396e-06
5.84739e-06
5.53981e-06
5.22822e-06
4.91664e-06
4.59784e-06
4.2605e-06
3.92316e-06
3.58274e-06
3.21979e-06
2.85683e-06
2.48328e-06
2.09624e-06
1.70332e-06
1.29528e-06
8.76275e-07
6.63475e-07
4.45256e-07
2.24463e-07
0
)


113
(
0
6.95874e-08
1.37517e-07
2.03706e-07
2.68316e-07
3.31396e-07
3.92832e-07
4.52406e-07
5.10599e-07
5.67569e-07
6.22411e-07
6.75942e-07
7.28443e-07
7.78576e-07
8.27737e-07
8.75498e-07
9.21364e-07
9.66355e-07
1.00939e-06
1.05118e-06
1.09188e-06
1.13051e-06
1.16832e-06
1.20445e-06
1.23914e-06
1.27299e-06
1.30468e-06
1.33547e-06
1.36498e-06
1.39277e-06
1.41969e-06
1.44493e-06
1.46888e-06
1.49197e-06
1.51301e-06
1.53317e-06
1.55214e-06
1.56937e-06
1.58574e-06
1.60061e-06
1.61409e-06
1.6267e-06
1.63751e-06
1.64725e-06
1.65596e-06
1.66284e-06
1.66913e-06
1.67343e-06
1.67698e-06
1.67896e-06
1.67982e-06
1.67943e-06
1.67758e-06
1.67477e-06
1.67027e-06
1.66498e-06
1.65787e-06
1.65002e-06
1.64035e-06
1.62987e-06
1.61772e-06
1.60455e-06
1.58994e-06
1.57401e-06
1.55701e-06
1.53826e-06
1.51888e-06
1.49726e-06
1.47553e-06
1.45099e-06
1.42645e-06
1.39941e-06
1.3719e-06
1.34248e-06
1.31194e-06
1.28013e-06
1.2465e-06
1.21234e-06
1.17555e-06
1.13875e-06
1.09901e-06
1.05898e-06
1.01685e-06
9.73522e-07
9.28932e-07
8.8228e-07
8.35127e-07
7.85141e-07
7.35154e-07
6.81972e-07
6.28691e-07
6.00839e-07
5.72603e-07
5.44367e-07
5.16132e-07
4.86634e-07
4.56895e-07
4.27157e-07
3.97033e-07
3.65917e-07
3.34802e-07
3.03541e-07
2.71208e-07
2.38875e-07
2.06091e-07
1.72733e-07
1.39148e-07
1.0498e-07
7.04195e-08
5.30226e-08
3.5443e-08
1.77799e-08
0
)

)


10
(

113
(
0
9.00574e-28
6.39535e-27
2.96801e-26
7.28392e-26
1.37955e-25
2.61715e-25
5.29218e-25
1.12313e-24
2.47417e-24
5.61395e-24
1.29686e-23
3.00408e-23
6.87807e-23
1.53519e-22
3.49129e-22
8.77638e-22
2.23604e-21
5.74398e-21
1.47227e-20
3.72278e-20
9.19753e-20
2.20403e-19
6.12603e-19
1.76975e-18
5.76644e-18
2.5052e-17
1.68159e-16
1.5778e-15
1.67876e-14
1.78059e-13
1.77119e-12
1.60939e-11
1.31299e-10
9.82843e-10
7.79317e-09
5.48553e-08
3.15132e-07
1.4504e-06
5.28436e-06
1.52708e-05
3.58643e-05
6.87943e-05
0.000111568
0.000158898
0.000205451
0.000247735
0.000284868
0.000317552
0.000347806
0.000377048
0.000405858
0.000434189
0.000461533
0.00048715
0.000508645
0.000524654
0.000534342
0.000537057
0.000528675
0.000509668
0.000482678
0.000446833
0.000402607
0.000355861
0.000306914
0.000260314
0.000216027
0.000177097
0.000143847
0.000113888
9.20398e-05
7.21998e-05
5.73964e-05
4.50714e-05
3.51852e-05
2.77568e-05
2.12794e-05
1.68889e-05
1.28223e-05
1.01546e-05
7.71238e-06
6.02094e-06
4.57061e-06
3.5038e-06
2.65933e-06
1.99387e-06
1.52098e-06
1.11228e-06
8.61586e-07
6.40049e-07
5.62565e-07
4.8508e-07
4.17259e-07
3.66919e-07
3.16579e-07
2.71382e-07
2.36816e-07
2.0225e-07
1.72826e-07
1.47782e-07
1.22966e-07
1.0392e-07
8.48729e-08
6.91257e-08
5.39717e-08
4.13142e-08
2.94901e-08
1.88132e-08
1.3804e-08
9.05506e-09
4.46635e-09
0
)


113
(
0
9.0178e-23
2.76744e-21
7.03813e-20
7.60908e-19
5.79523e-18
4.55054e-17
3.14623e-16
1.80844e-15
9.40833e-15
4.71464e-14
2.02778e-13
7.92238e-13
2.77431e-12
8.5623e-12
2.55226e-11
8.15142e-11
2.38085e-10
6.422e-10
1.61319e-09
3.80007e-09
8.43917e-09
1.78033e-08
3.90839e-08
8.12675e-08
1.6059e-07
3.03016e-07
5.49004e-07
9.60419e-07
1.62714e-06
2.67171e-06
4.2531e-06
6.57302e-06
9.87325e-06
1.44408e-05
2.0627e-05
2.87087e-05
3.89571e-05
5.16055e-05
6.68021e-05
8.46242e-05
0.000105077
0.000127982
0.000152974
0.000179672
0.000207618
0.000236287
0.000265127
0.00029358
0.000320957
0.000346753
0.000370414
0.000391482
0.000409568
0.000424363
0.000434376
0.000439983
0.0004414
0.000438699
0.000430365
0.000417298
0.000400725
0.000380307
0.000355757
0.000329429
0.000301147
0.000271719
0.000242221
0.000213136
0.000185485
0.000158667
0.000135249
0.000113028
9.39654e-05
7.70795e-05
6.23358e-05
5.04243e-05
3.96087e-05
3.17664e-05
2.44121e-05
1.93716e-05
1.47396e-05
1.14674e-05
8.66118e-06
6.59622e-06
4.96678e-06
3.68796e-06
2.77862e-06
1.99244e-06
1.51127e-06
1.08711e-06
9.40146e-07
7.93185e-07
6.66086e-07
5.74918e-07
4.83749e-07
4.03388e-07
3.45371e-07
2.87353e-07
2.39765e-07
2.01061e-07
1.62791e-07
1.35506e-07
1.08222e-07
8.67723e-08
6.63695e-08
5.01168e-08
3.51352e-08
2.19505e-08
1.59041e-08
1.03336e-08
5.09866e-09
0
)


113
(
0
2.2096e-10
7.73721e-10
2.03741e-09
4.43152e-09
8.75433e-09
1.62085e-08
2.85324e-08
4.85371e-08
7.98129e-08
1.27207e-07
1.96302e-07
2.94476e-07
4.32276e-07
6.22754e-07
8.8248e-07
1.24211e-06
1.71603e-06
2.32995e-06
3.11365e-06
4.10055e-06
5.32727e-06
6.83565e-06
8.73759e-06
1.10459e-05
1.38081e-05
1.7074e-05
2.08983e-05
2.53315e-05
3.04301e-05
3.62542e-05
4.28307e-05
5.02293e-05
5.84595e-05
6.75423e-05
7.74367e-05
8.81394e-05
9.96094e-05
0.000111808
0.000124633
0.000138013
0.000151884
0.000166001
0.000180417
0.000194733
0.000209025
0.00022295
0.000236388
0.000249178
0.000261056
0.000271975
0.000281687
0.000290115
0.000297172
0.000302729
0.00030633
0.000308189
0.00030844
0.00030714
0.00030376
0.000298603
0.00029209
0.000284053
0.00027419
0.000263384
0.00025146
0.000238334
0.000224726
0.000210385
0.000195724
0.000180878
0.000166032
0.000151311
0.000136957
0.000123063
0.000109622
9.70923e-05
8.49147e-05
7.41336e-05
6.36238e-05
5.4713e-05
4.6184e-05
3.89261e-05
3.22573e-05
2.65258e-05
2.1552e-05
1.71884e-05
1.37167e-05
1.05424e-05
8.24766e-06
6.17267e-06
5.3895e-06
4.60632e-06
3.90951e-06
3.36896e-06
2.82841e-06
2.34599e-06
1.98374e-06
1.6215e-06
1.32426e-06
1.08239e-06
8.4351e-07
6.80299e-07
5.17088e-07
3.96997e-07
2.84654e-07
2.0419e-07
1.34258e-07
7.89333e-08
5.55432e-08
3.59091e-08
1.79325e-08
0
)


113
(
0
9.20571e-08
2.1211e-07
3.8085e-07
6.03377e-07
8.90803e-07
1.25591e-06
1.71215e-06
2.27337e-06
2.95353e-06
3.76674e-06
4.72726e-06
5.85051e-06
7.15485e-06
8.65816e-06
1.03796e-05
1.2359e-05
1.45821e-05
1.70408e-05
1.97786e-05
2.28162e-05
2.61256e-05
2.97569e-05
3.37195e-05
3.8019e-05
4.26479e-05
4.75733e-05
5.28185e-05
5.83953e-05
6.42708e-05
7.04268e-05
7.68611e-05
8.35188e-05
9.04713e-05
9.75169e-05
0.000104848
0.00011231
0.000119774
0.000127365
0.000134918
0.000142422
0.000149842
0.000157107
0.000164165
0.000171101
0.000177578
0.000183846
0.000189701
0.000195077
0.00019994
0.000204353
0.000208143
0.000211361
0.000214024
0.00021606
0.000217296
0.000217814
0.000217703
0.000216995
0.000215473
0.000213226
0.000210413
0.000206951
0.000202682
0.000197971
0.000192726
0.000186816
0.000180602
0.000173873
0.000166791
0.000159503
0.000151723
0.000143844
0.000135725
0.000127541
0.000119294
0.000111137
0.000103015
9.50773e-05
8.71839e-05
7.95971e-05
7.21361e-05
6.50933e-05
5.82754e-05
5.18154e-05
4.57147e-05
3.99034e-05
3.462e-05
2.95125e-05
2.51626e-05
2.10183e-05
1.91848e-05
1.73513e-05
1.56276e-05
1.41022e-05
1.25769e-05
1.11398e-05
9.88499e-06
8.63019e-06
7.49925e-06
6.47383e-06
5.45558e-06
4.61911e-06
3.78265e-06
3.07537e-06
2.39148e-06
1.82378e-06
1.29938e-06
8.34488e-07
6.18979e-07
4.14907e-07
2.11841e-07
0
)


113
(
0
7.86631e-07
1.58596e-06
2.48385e-06
3.49728e-06
4.64182e-06
5.92797e-06
7.36165e-06
8.9461e-06
1.0683e-05
1.25735e-05
1.46182e-05
1.68175e-05
1.91717e-05
2.16806e-05
2.43549e-05
2.72022e-05
3.02005e-05
3.3347e-05
3.66381e-05
4.00698e-05
4.36374e-05
4.73353e-05
5.11737e-05
5.51625e-05
5.93522e-05
6.36014e-05
6.78993e-05
7.22803e-05
7.66983e-05
8.11101e-05
8.55752e-05
9.00235e-05
9.44897e-05
9.88283e-05
0.00010322
0.000107549
0.000111803
0.000115916
0.000119946
0.000123971
0.000127721
0.00013144
0.000134871
0.000138168
0.000141266
0.00014416
0.000146786
0.00014915
0.000151268
0.000153159
0.00015477
0.000156072
0.000157072
0.0001578
0.000158167
0.000158241
0.000158027
0.000157523
0.00015661
0.0001554
0.000153948
0.000152211
0.000150099
0.000147764
0.000145147
0.000142084
0.000138861
0.000135426
0.000131734
0.000127892
0.000123699
0.00011939
0.000114782
0.000110026
0.000105125
0.000100146
9.5138e-05
9.00862e-05
8.50262e-05
7.99195e-05
7.48174e-05
6.97305e-05
6.46775e-05
5.96786e-05
5.47633e-05
4.99153e-05
4.52213e-05
4.05787e-05
3.61831e-05
3.18726e-05
2.98167e-05
2.77608e-05
2.57586e-05
2.38537e-05
2.19487e-05
2.00943e-05
1.83446e-05
1.65949e-05
1.49277e-05
1.3331e-05
1.17397e-05
1.02855e-05
8.83123e-06
7.4803e-06
6.14802e-06
4.90345e-06
3.68344e-06
2.48903e-06
1.89361e-06
1.28664e-06
6.60953e-07
0
)


113
(
0
1.83917e-06
3.55657e-06
5.27e-06
7.0282e-06
8.8562e-06
1.07681e-05
1.27699e-05
1.48618e-05
1.70411e-05
1.93035e-05
2.16442e-05
2.40582e-05
2.65406e-05
2.90864e-05
3.16947e-05
3.43621e-05
3.70762e-05
3.9832e-05
4.26243e-05
4.54481e-05
4.82981e-05
5.11688e-05
5.40556e-05
5.69493e-05
5.98443e-05
6.27345e-05
6.56138e-05
6.8476e-05
7.13148e-05
7.41236e-05
7.68962e-05
7.96259e-05
8.23141e-05
8.50915e-05
8.76629e-05
9.01657e-05
9.25944e-05
9.49434e-05
9.72069e-05
9.93798e-05
0.000101454
0.000103426
0.000105431
0.000108184
0.000110149
0.00011188
0.00011351
0.000114804
0.000115885
0.000116786
0.000117436
0.000117849
0.000118079
0.000118172
0.000117895
0.000117256
0.000115708
0.000113491
0.00011289
0.000112121
0.000111218
0.000110163
0.000108904
0.000107528
0.000106007
0.000104692
0.000103222
0.000101196
9.90296e-05
9.67824e-05
9.43287e-05
9.18155e-05
8.91496e-05
8.63875e-05
8.35307e-05
8.05484e-05
7.75176e-05
7.43471e-05
7.11527e-05
6.78385e-05
6.45004e-05
6.10832e-05
5.76375e-05
5.41467e-05
5.06324e-05
4.70991e-05
4.35583e-05
4.0015e-05
3.64933e-05
3.29871e-05
3.12524e-05
2.95176e-05
2.77964e-05
2.60999e-05
2.44034e-05
2.27217e-05
2.10708e-05
1.94199e-05
1.77936e-05
1.6188e-05
1.45839e-05
1.30136e-05
1.14434e-05
9.88616e-06
8.33102e-06
6.76374e-06
5.17561e-06
3.54561e-06
2.70987e-06
1.8408e-06
9.41888e-07
0
)


113
(
0
2.37924e-06
4.56637e-06
6.64162e-06
8.66108e-06
1.0651e-05
1.26292e-05
1.4608e-05
1.65943e-05
1.85919e-05
2.06019e-05
2.26242e-05
2.46578e-05
2.67009e-05
2.87515e-05
3.08074e-05
3.28654e-05
3.49221e-05
3.69748e-05
3.90207e-05
4.10573e-05
4.30817e-05
4.50912e-05
4.65054e-05
4.83383e-05
5.02138e-05
5.20575e-05
5.38666e-05
5.56381e-05
5.73692e-05
5.90571e-05
6.06992e-05
6.22925e-05
6.38347e-05
6.5323e-05
6.67536e-05
6.81255e-05
6.9437e-05
7.06858e-05
7.18699e-05
7.29873e-05
7.40339e-05
7.50089e-05
7.59113e-05
7.67399e-05
7.74933e-05
7.817e-05
7.87692e-05
7.92839e-05
7.9714e-05
8.00624e-05
8.03278e-05
8.05109e-05
8.06123e-05
8.06335e-05
8.0551e-05
8.03811e-05
8.01313e-05
7.98046e-05
7.93735e-05
7.88501e-05
7.82538e-05
7.75736e-05
7.67801e-05
7.59208e-05
7.49801e-05
7.39271e-05
7.28181e-05
7.16092e-05
7.03145e-05
6.89702e-05
6.74956e-05
6.59823e-05
6.43693e-05
6.26905e-05
6.09469e-05
5.91124e-05
5.72427e-05
5.55914e-05
5.3922e-05
5.17666e-05
4.95897e-05
4.73412e-05
4.50609e-05
4.27301e-05
4.03603e-05
3.79592e-05
3.55145e-05
3.30554e-05
3.05498e-05
2.80324e-05
2.676e-05
2.54876e-05
2.42088e-05
2.29183e-05
2.16278e-05
2.03307e-05
1.90196e-05
1.77086e-05
1.63826e-05
1.50439e-05
1.37038e-05
1.23263e-05
1.09487e-05
9.52625e-06
8.09543e-06
6.59933e-06
5.0651e-06
3.46816e-06
2.64497e-06
1.79002e-06
9.10765e-07
0
)


113
(
0
2.11999e-06
4.09118e-06
5.94256e-06
7.70831e-06
9.40245e-06
1.10364e-05
1.26202e-05
1.41617e-05
1.56671e-05
1.71409e-05
1.85864e-05
2.0006e-05
2.14012e-05
2.27732e-05
2.4121e-05
2.54438e-05
2.67441e-05
2.80218e-05
2.92764e-05
3.05075e-05
3.17142e-05
3.28957e-05
3.40471e-05
3.51717e-05
3.62685e-05
3.73365e-05
3.83748e-05
3.93824e-05
4.03583e-05
4.13016e-05
4.22112e-05
4.30862e-05
4.39258e-05
4.47289e-05
4.5494e-05
4.6221e-05
4.69095e-05
4.75589e-05
4.81684e-05
4.87375e-05
4.92641e-05
4.97484e-05
5.01902e-05
5.05894e-05
5.09454e-05
5.12579e-05
5.15267e-05
5.17482e-05
5.19227e-05
5.20522e-05
5.21362e-05
5.21751e-05
5.21697e-05
5.21208e-05
5.20158e-05
5.18638e-05
5.16688e-05
5.14325e-05
5.11402e-05
5.07984e-05
5.04174e-05
4.99914e-05
4.95044e-05
4.8982e-05
4.84156e-05
4.77883e-05
4.71305e-05
4.64182e-05
4.56586e-05
4.48716e-05
4.40119e-05
4.31305e-05
4.21925e-05
4.12164e-05
4.02029e-05
3.91353e-05
3.80468e-05
3.6891e-05
3.57229e-05
3.44875e-05
3.32358e-05
3.19292e-05
3.05956e-05
2.92191e-05
2.78043e-05
2.63587e-05
2.48612e-05
2.33464e-05
2.17613e-05
2.01535e-05
1.93232e-05
1.84929e-05
1.76482e-05
1.67773e-05
1.59065e-05
1.50209e-05
1.41051e-05
1.31893e-05
1.22465e-05
1.12805e-05
1.03125e-05
9.29139e-06
8.27027e-06
7.19894e-06
6.11841e-06
4.97864e-06
3.80972e-06
2.59545e-06
1.97187e-06
1.32916e-06
6.72893e-07
0
)


113
(
0
1.27968e-06
2.49409e-06
3.64711e-06
4.74992e-06
5.80543e-06
6.81645e-06
7.78621e-06
8.71792e-06
9.61457e-06
1.04787e-05
1.13126e-05
1.2118e-05
1.28964e-05
1.36492e-05
1.43756e-05
1.50757e-05
1.57531e-05
1.64086e-05
1.70427e-05
1.76559e-05
1.82485e-05
1.88207e-05
1.937e-05
1.98998e-05
2.04102e-05
2.09015e-05
2.13737e-05
2.18268e-05
2.2261e-05
2.26762e-05
2.30725e-05
2.34499e-05
2.38083e-05
2.41477e-05
2.44677e-05
2.47688e-05
2.5051e-05
2.53143e-05
2.55588e-05
2.57842e-05
2.59901e-05
2.61767e-05
2.63441e-05
2.64924e-05
2.66217e-05
2.67317e-05
2.68228e-05
2.68933e-05
2.69436e-05
2.69746e-05
2.69861e-05
2.69785e-05
2.69521e-05
2.69073e-05
2.68387e-05
2.67504e-05
2.66438e-05
2.65198e-05
2.63722e-05
2.62035e-05
2.60182e-05
2.58136e-05
2.55829e-05
2.53368e-05
2.50716e-05
2.47797e-05
2.44742e-05
2.41444e-05
2.3793e-05
2.34291e-05
2.30312e-05
2.26228e-05
2.2187e-05
2.17321e-05
2.12584e-05
2.07563e-05
2.02431e-05
1.96925e-05
1.9135e-05
1.85378e-05
1.79302e-05
1.7288e-05
1.66277e-05
1.59384e-05
1.52216e-05
1.44826e-05
1.37044e-05
1.29131e-05
1.20669e-05
1.12031e-05
1.07507e-05
1.02982e-05
9.83486e-06
9.35183e-06
8.86881e-06
8.37547e-06
7.86079e-06
7.34611e-06
6.81406e-06
6.26721e-06
5.71915e-06
5.14047e-06
4.56179e-06
3.95725e-06
3.34801e-06
2.71141e-06
2.0626e-06
1.39538e-06
1.05545e-06
7.0859e-07
3.57061e-07
0
)


113
(
0
1.14596e-07
2.26405e-07
3.35316e-07
4.4164e-07
5.45328e-07
6.46338e-07
7.44675e-07
8.40371e-07
9.33475e-07
1.02404e-06
1.1121e-06
1.19772e-06
1.28091e-06
1.3617e-06
1.43996e-06
1.51557e-06
1.58885e-06
1.65982e-06
1.7285e-06
1.79488e-06
1.85899e-06
1.92082e-06
1.98004e-06
2.03703e-06
2.09181e-06
2.14437e-06
2.19472e-06
2.24287e-06
2.28882e-06
2.33258e-06
2.37416e-06
2.41355e-06
2.45077e-06
2.48582e-06
2.51866e-06
2.54935e-06
2.57792e-06
2.60436e-06
2.62869e-06
2.65091e-06
2.67097e-06
2.6889e-06
2.70473e-06
2.71848e-06
2.73016e-06
2.73976e-06
2.7473e-06
2.75265e-06
2.75583e-06
2.75694e-06
2.75599e-06
2.753e-06
2.74801e-06
2.74107e-06
2.73162e-06
2.72008e-06
2.70662e-06
2.69131e-06
2.6735e-06
2.65348e-06
2.6317e-06
2.60788e-06
2.5813e-06
2.5531e-06
2.52288e-06
2.48982e-06
2.45533e-06
2.41826e-06
2.37891e-06
2.33824e-06
2.29397e-06
2.2486e-06
2.20035e-06
2.15009e-06
2.09787e-06
2.04271e-06
1.9864e-06
1.92628e-06
1.86546e-06
1.80068e-06
1.73488e-06
1.66574e-06
1.59489e-06
1.52134e-06
1.44533e-06
1.36734e-06
1.28605e-06
1.20366e-06
1.11696e-06
1.02898e-06
9.83488e-07
9.38e-07
8.91787e-07
8.44264e-07
7.96741e-07
7.48591e-07
6.99148e-07
6.49705e-07
5.99304e-07
5.48088e-07
4.96811e-07
4.44002e-07
3.91193e-07
3.37201e-07
2.82996e-07
2.27639e-07
1.71803e-07
1.15261e-07
8.67557e-08
5.80055e-08
2.90954e-08
0
)

)


10
(

113
(
0
1.3874e-24
1.20846e-23
5.11789e-23
1.34647e-22
2.67495e-22
4.7172e-22
8.21434e-22
1.41889e-21
2.40183e-21
4.07561e-21
7.02583e-21
1.24375e-20
2.25538e-20
4.30923e-20
9.44e-20
2.165e-19
4.93154e-19
1.04867e-18
2.59533e-18
7.38846e-18
2.3825e-17
8.81333e-17
3.29846e-16
1.03908e-15
5.9175e-15
3.5625e-14
2.13742e-13
1.19375e-12
5.48083e-12
2.55892e-11
1.79291e-10
1.111e-09
6.08e-09
3.00182e-08
1.39e-07
5.55545e-07
1.91727e-06
5.79e-06
1.689e-05
4.09909e-05
8.754e-05
0.0001547
0.000246
0.000348545
0.000453273
0.000554182
0.000641333
0.0007115
0.000769
0.000804385
0.000829583
0.00084
0.000836286
0.000817714
0.000783143
0.000737429
0.000681
0.000615667
0.000549563
0.000482688
0.000418063
0.000355563
0.000297437
0.000248706
0.000204
0.000171222
0.000140111
0.000115667
9.39778e-05
7.64222e-05
6.23579e-05
5.06211e-05
4.14263e-05
3.33211e-05
2.75e-05
2.225e-05
1.84e-05
1.49e-05
1.2272e-05
9.862e-06
8.108e-06
6.518e-06
5.31158e-06
4.20105e-06
3.469e-06
2.779e-06
2.255e-06
1.76722e-06
1.43944e-06
1.14153e-06
1.02741e-06
9.13294e-07
8.05562e-07
7.23375e-07
6.41187e-07
5.59e-07
4.99333e-07
4.39667e-07
3.8e-07
3.2875e-07
2.775e-07
2.33818e-07
1.95182e-07
1.58889e-07
1.26111e-07
9.59429e-08
6.86833e-08
4.61e-08
3.49125e-08
2.245e-08
1.13225e-08
0
)


113
(
0
6.75389e-22
2.06187e-20
3.12121e-19
3.00006e-18
2.24909e-17
1.71187e-16
1.14234e-15
6.74955e-15
3.60472e-14
1.73659e-13
7.25065e-13
2.51796e-12
7.77773e-12
2.56514e-11
8.41504e-11
2.56529e-10
7.15175e-10
1.6553e-09
3.99764e-09
1.02604e-08
2.3349e-08
5.02689e-08
1.01962e-07
1.9532e-07
3.88706e-07
7.34114e-07
1.322e-06
2.27874e-06
3.77154e-06
6.16704e-06
9.84936e-06
1.53125e-05
2.29194e-05
3.31574e-05
4.6882e-05
6.45715e-05
8.67711e-05
0.000113866
0.000146697
0.000184587
0.000226907
0.000273376
0.000322574
0.000373497
0.000424459
0.000473876
0.000520091
0.000562036
0.000598241
0.000625262
0.000644986
0.000656045
0.000659215
0.000652986
0.000637699
0.000616266
0.00058901
0.000554029
0.000516338
0.000475938
0.000433317
0.000390566
0.000348087
0.000307546
0.000267835
0.00023286
0.000199048
0.000169893
0.000143114
0.000119901
0.000100026
8.23754e-05
6.81024e-05
5.52768e-05
4.55507e-05
3.65996e-05
2.99808e-05
2.39451e-05
1.95324e-05
1.55255e-05
1.26176e-05
9.98445e-06
8.07549e-06
6.34757e-06
5.15156e-06
4.01465e-06
3.22875e-06
2.5064e-06
2.00511e-06
1.55282e-06
1.38385e-06
1.21488e-06
1.05642e-06
9.39956e-07
8.23495e-07
7.07035e-07
6.24227e-07
5.41418e-07
4.5861e-07
3.96724e-07
3.34839e-07
2.80991e-07
2.32503e-07
1.87693e-07
1.484e-07
1.12782e-07