/*--------------------------------*- C++ -*----------------------------------*\
| =========                 |                                                 |
| \\      /  F ield         | OpenFOAM: The Open Source CFD Toolbox           |
|  \\    /   O peration     | Version:  2.3.0                                 |
|   \\  /    A nd           | Web:      www.OpenFOAM.org                      |
|    \\/     M anipulation  |                                                 |
\*---------------------------------------------------------------------------*/
FoamFile
{
    version     2.0;
    format      ascii;
    class       dictionary;
    location    "constant";
    object      CH3O;
}
// * * * * * * * * * * * * * * * * * * * * * * * * * * * * * * * * * * * * * //

CH3O_table
13
(

10
(

113
(
0
1.21346e-30
2.43434e-30
3.7761e-30
7.91579e-30
2.08786e-29
5.54024e-29
1.59114e-28
3.94821e-28
8.00662e-28
1.95298e-27
5.23846e-27
1.02e-26
3.91308e-26
1.36876e-25
3.33646e-25
1.53472e-24
4.59134e-24
1.54816e-23
6.3e-23
1.43e-22
6.2789e-22
1.83531e-21
4.97111e-21
1.61741e-20
3.29466e-20
1.00276e-19
2.43646e-19
4.96441e-19
1.81643e-18
1.55952e-17
7.52389e-17
2.02882e-15
7.49314e-15
1.2565e-13
1.35155e-12
4.04585e-12
3.25054e-11
1.09472e-10
3.05295e-10
7.14955e-10
1.21739e-09
1.69565e-09
1.97886e-09
2.07467e-09
1.96861e-09
1.82156e-09
1.65397e-09
1.49849e-09
1.36876e-09
1.25476e-09
1.1585e-09
1.08562e-09
1.02833e-09
1.00655e-09
1.00147e-09
1.04921e-09
1.11851e-09
1.25333e-09
1.41758e-09
1.67781e-09
1.99686e-09
2.45131e-09
3.03075e-09
3.78056e-09
4.80833e-09
6.01165e-09
7.83734e-09
9.71927e-09
1.29511e-08
1.61829e-08
2.12611e-08
2.6691e-08
3.35811e-08
4.13288e-08
4.89567e-08
5.64121e-08
6.31416e-08
6.63274e-08
6.95133e-08
6.81965e-08
6.64344e-08
6.28549e-08
5.82531e-08
5.33892e-08
4.80978e-08
4.29119e-08
3.83248e-08
3.37376e-08
2.76593e-08
2.15349e-08
1.87643e-08
1.60857e-08
1.34071e-08
1.07286e-08
8.95978e-09
7.36427e-09
5.76876e-09
4.38873e-09
3.56278e-09
2.73684e-09
1.95779e-09
1.52272e-09
1.08764e-09
7.39093e-10
5.00667e-10
2.9184e-10
1.59123e-10
6.70929e-11
3.29411e-11
1.47054e-11
3.2681e-12
0
)


113
(
0
6.1392e-27
2.42531e-25
5.66449e-24
5.49443e-23
4.83229e-22
2.59742e-21
2.17603e-20
1.41121e-19
4.77597e-19
2.49563e-18
1.24285e-17
2.85801e-17
1.38636e-16
4.62956e-16
1.09561e-15
4.06763e-15
9.40313e-15
2.34226e-14
6.23904e-14
1.23482e-13
3.13337e-13
6.22232e-13
1.22921e-12
2.47778e-12
4.13315e-12
8.03819e-12
1.37663e-11
2.21179e-11
3.66388e-11
5.53227e-11
8.38651e-11
1.22612e-10
1.68301e-10
2.34471e-10
3.10008e-10
3.9796e-10
5.01826e-10
6.11404e-10
7.28833e-10
8.45896e-10
9.61261e-10
1.06538e-09
1.15718e-09
1.23715e-09
1.29147e-09
1.33796e-09
1.36055e-09
1.37763e-09
1.38302e-09
1.39076e-09
1.40115e-09
1.43239e-09
1.47753e-09
1.57178e-09
1.68914e-09
1.8953e-09
2.13772e-09
2.51825e-09
2.96083e-09
3.5952e-09
4.34712e-09
5.33825e-09
6.55017e-09
8.00246e-09
9.84693e-09
1.18643e-08
1.44944e-08
1.71573e-08
2.06051e-08
2.40529e-08
2.80188e-08
3.20834e-08
3.62004e-08
4.03482e-08
4.42133e-08
4.76715e-08
5.08745e-08
5.28314e-08
5.47884e-08
5.49013e-08
5.48319e-08
5.34699e-08
5.13809e-08
4.87044e-08
4.50695e-08
4.13002e-08
3.67691e-08
3.2238e-08
2.75012e-08
2.2758e-08
2.05456e-08
1.83836e-08
1.62215e-08
1.40595e-08
1.22691e-08
1.05496e-08
8.83003e-09
7.25478e-09
6.05057e-09
4.84637e-09
3.69527e-09
2.93364e-09
2.17202e-09
1.54485e-09
1.08881e-09
6.84562e-10
4.13497e-10
2.10899e-10
1.29554e-10
7.4885e-11
3.10356e-11
0
)


113
(
0
3.57173e-15
1.21998e-14
3.11352e-14
6.65144e-14
1.26355e-13
2.2398e-13
4.19788e-13
7.0221e-13
1.07084e-12
1.6715e-12
2.53876e-12
3.61551e-12
5.39183e-12
7.58137e-12
1.03656e-11
1.4189e-11
1.8674e-11
2.51203e-11
3.27066e-11
4.13039e-11
5.27469e-11
6.58559e-11
8.28071e-11
1.01611e-10
1.21569e-10
1.47025e-10
1.74991e-10
2.06568e-10
2.42496e-10
2.80769e-10
3.23774e-10
3.71347e-10
4.21971e-10
4.78985e-10
5.3921e-10
6.03692e-10
6.77052e-10
7.54546e-10
8.38984e-10
9.35074e-10
1.0382e-09
1.15453e-09
1.28646e-09
1.43338e-09
1.60474e-09
1.78732e-09
2.02302e-09
2.2792e-09
2.57887e-09
2.92131e-09
3.31199e-09
3.77617e-09
4.28935e-09
4.90091e-09
5.55877e-09
6.34877e-09
7.19276e-09
8.18167e-09
9.2357e-09
1.04352e-08
1.1724e-08
1.31319e-08
1.46499e-08
1.62461e-08
1.79697e-08
1.97276e-08
2.16076e-08
2.34898e-08
2.54236e-08
2.73574e-08
2.92198e-08
3.10686e-08
3.27613e-08
3.43624e-08
3.57887e-08
3.69637e-08
3.80343e-08
3.85952e-08
3.91562e-08
3.90402e-08
3.88571e-08
3.81582e-08
3.71689e-08
3.58815e-08
3.41075e-08
3.22441e-08
2.98738e-08
2.75036e-08
2.47323e-08
2.19487e-08
2.05118e-08
1.90607e-08
1.76095e-08
1.61584e-08
1.47567e-08
1.33644e-08
1.19722e-08
1.06195e-08
9.36866e-09
8.11782e-09
6.8921e-09
5.85061e-09
4.80913e-09
3.8538e-09
3.00813e-09
2.20967e-09
1.53261e-09
9.42147e-10
6.72607e-10
4.42039e-10
2.22755e-10
0
)


113
(
0
7.83961e-13
1.79419e-12
3.19545e-12
5.03794e-12
7.38086e-12
1.03503e-11
1.41903e-11
1.88023e-11
2.4142e-11
3.10019e-11
3.90168e-11
4.79392e-11
5.98135e-11
7.28289e-11
8.74864e-11
1.05514e-10
1.25151e-10
1.48529e-10
1.74937e-10
2.04032e-10
2.38365e-10
2.7558e-10
3.19343e-10
3.69304e-10
4.22922e-10
4.84954e-10
5.53814e-10
6.32501e-10
7.21959e-10
8.17873e-10
9.27945e-10
1.05012e-09
1.18051e-09
1.33363e-09
1.50097e-09
1.68715e-09
1.89493e-09
2.11657e-09
2.36537e-09
2.63887e-09
2.92969e-09
3.26606e-09
3.62592e-09
4.00834e-09
4.44337e-09
4.89373e-09
5.387e-09
5.90798e-09
6.48783e-09
7.08988e-09
7.71694e-09
8.40354e-09
9.12982e-09
9.9012e-09
1.06938e-08
1.15435e-08
1.24166e-08
1.33259e-08
1.42516e-08
1.52094e-08
1.61867e-08
1.71743e-08
1.81714e-08
1.91684e-08
2.01654e-08
2.11518e-08
2.21008e-08
2.30463e-08
2.39091e-08
2.47719e-08
2.55187e-08
2.62435e-08
2.68437e-08
2.73709e-08
2.7801e-08
2.80914e-08
2.83324e-08
2.83318e-08
2.83313e-08
2.80335e-08
2.77064e-08
2.71528e-08
2.6472e-08
2.56453e-08
2.45809e-08
2.34717e-08
2.21095e-08
2.07472e-08
1.91557e-08
1.75572e-08
1.66911e-08
1.58039e-08
1.49167e-08
1.40295e-08
1.3105e-08
1.21734e-08
1.12417e-08
1.03091e-08
9.37392e-09
8.43873e-09
7.50722e-09
6.60264e-09
5.69806e-09
4.81756e-09
3.9677e-09
3.13457e-09
2.34445e-09
1.57843e-09
1.20143e-09
8.22084e-10
4.29439e-10
0
)


113
(
0
1.03028e-11
2.12536e-11
3.40498e-11
4.90539e-11
6.6517e-11
8.69302e-11
1.11147e-10
1.38516e-10
1.68789e-10
2.04749e-10
2.44731e-10
2.87872e-10
3.39353e-10
3.94754e-10
4.55797e-10
5.25549e-10
5.99568e-10
6.8379e-10
7.7526e-10
8.73157e-10
9.84663e-10
1.10199e-09
1.23156e-09
1.37428e-09
1.52481e-09
1.69636e-09
1.87641e-09
2.06872e-09
2.26924e-09
2.4792e-09
2.71703e-09
2.97053e-09
3.23422e-09
3.50624e-09
3.80444e-09
4.13732e-09
4.47022e-09
4.80993e-09
5.16802e-09
5.55505e-09
5.95707e-09
6.37369e-09
6.80534e-09
7.25143e-09
7.72681e-09
8.20731e-09
8.68407e-09
9.18905e-09
9.75399e-09
1.0298e-08
1.08183e-08
1.13679e-08
1.19369e-08
1.2518e-08
1.31047e-08
1.36826e-08
1.42569e-08
1.48281e-08
1.5398e-08
1.59566e-08
1.65083e-08
1.70466e-08
1.75725e-08
1.80771e-08
1.8547e-08
1.90046e-08
1.94187e-08
1.98292e-08
2.01528e-08
2.04764e-08
2.06959e-08
2.08956e-08
2.10309e-08
2.11282e-08
2.11518e-08
2.10692e-08
2.09674e-08
2.07718e-08
2.05763e-08
2.02301e-08
1.9869e-08
1.93972e-08
1.88632e-08
1.82633e-08
1.75558e-08
1.68234e-08
1.59495e-08
1.50756e-08
1.40556e-08
1.3031e-08
1.24709e-08
1.18956e-08
1.13204e-08
1.07451e-08
1.01308e-08
9.50893e-09
8.8871e-09
8.2574e-09
7.60746e-09
6.95753e-09
6.30614e-09
5.64413e-09
4.98213e-09
4.31758e-09
3.64979e-09
2.97783e-09
2.29514e-09
1.58912e-09
1.22801e-09
8.42713e-10
4.38641e-10
0
)


113
(
0
5.76231e-11
1.13924e-10
1.72514e-10
2.34971e-10
3.02117e-10
3.75043e-10
4.55289e-10
5.41344e-10
6.32655e-10
7.33645e-10
8.40934e-10
9.53173e-10
1.07738e-09
1.20675e-09
1.34354e-09
1.49084e-09
1.64307e-09
1.80662e-09
1.97756e-09
2.15505e-09
2.34534e-09
2.54079e-09
2.74688e-09
2.96217e-09
3.18294e-09
3.4178e-09
3.6585e-09
3.90762e-09
4.16794e-09
4.43392e-09
4.71071e-09
4.99559e-09
5.2863e-09
5.60933e-09
5.92961e-09
6.24628e-09
6.57253e-09
6.90326e-09
7.24157e-09
7.5863e-09
7.93492e-09
8.29081e-09
8.67879e-09
9.0976e-09
9.46364e-09
9.82867e-09
1.02668e-08
1.06746e-08
1.10181e-08
1.13768e-08
1.17527e-08
1.21036e-08
1.24378e-08
1.27467e-08
1.30437e-08
1.32432e-08
1.34028e-08
1.36486e-08
1.39331e-08
1.41987e-08
1.44529e-08
1.46878e-08
1.49049e-08
1.51054e-08
1.52786e-08
1.54428e-08
1.55748e-08
1.5704e-08
1.57651e-08
1.58263e-08
1.58333e-08
1.583e-08
1.57818e-08
1.57072e-08
1.56007e-08
1.54481e-08
1.52812e-08
1.50444e-08
1.48076e-08
1.44895e-08
1.41632e-08
1.37775e-08
1.33584e-08
1.29037e-08
1.2391e-08
1.18646e-08
1.12606e-08
1.06566e-08
9.97033e-09
9.28148e-09
8.90872e-09
8.52701e-09
8.14531e-09
7.7636e-09
7.35577e-09
6.94296e-09
6.53015e-09
6.10999e-09
5.67094e-09
5.23189e-09
4.78979e-09
4.32531e-09
3.86083e-09
3.38299e-09
2.88815e-09
2.38224e-09
1.84789e-09
1.28242e-09
9.89799e-10
6.75628e-10
3.48388e-10
0
)


113
(
0
1.44602e-10
2.81646e-10
4.15597e-10
5.49502e-10
6.84928e-10
8.2324e-10
9.66071e-10
1.11277e-09
1.26304e-09
1.42005e-09
1.58142e-09
1.74621e-09
1.91904e-09
2.09518e-09
2.27606e-09
2.4633e-09
2.65343e-09
2.84997e-09
3.05041e-09
3.25431e-09
3.4645e-09
3.67292e-09
3.87437e-09
4.08682e-09
4.30554e-09
4.52868e-09
4.7534e-09
4.98037e-09
5.20984e-09
5.44044e-09
5.6729e-09
5.90635e-09
6.14043e-09
6.37527e-09
6.61008e-09
6.84484e-09
7.07876e-09
7.31202e-09
7.54387e-09
7.77372e-09
8.0022e-09
8.22717e-09
8.44948e-09
8.66922e-09
8.88332e-09
9.09542e-09
9.30008e-09
9.50147e-09
9.6959e-09
9.88461e-09
1.00669e-08
1.02406e-08
1.04086e-08
1.05654e-08
1.07169e-08
1.08548e-08
1.09871e-08
1.11043e-08
1.12148e-08
1.13099e-08
1.13957e-08
1.14671e-08
1.15252e-08
1.15717e-08
1.15993e-08
1.16196e-08
1.16137e-08
1.16064e-08
1.15643e-08
1.15222e-08
1.14474e-08
1.13663e-08
1.1259e-08
1.11364e-08
1.09958e-08
1.08292e-08
1.06599e-08
1.04768e-08
1.02938e-08
1.00339e-08
9.76638e-09
9.46857e-09
9.15373e-09
8.82087e-09
8.4586e-09
8.08932e-09
7.68034e-09
7.27135e-09
6.81836e-09
6.364e-09
6.12005e-09
5.8708e-09
5.62155e-09
5.3723e-09
5.10446e-09
4.83309e-09
4.56172e-09
4.28374e-09
3.98878e-09
3.69382e-09
3.39564e-09
3.0739e-09
2.75216e-09
2.41682e-09
2.06419e-09
1.70207e-09
1.31554e-09
9.0707e-10
6.96058e-10
4.72159e-10
2.41334e-10
0
)


113
(
0
2.05057e-10
3.99113e-10
5.846e-10
7.6432e-10
9.39745e-10
1.1117e-09
1.28103e-09
1.44901e-09
1.61597e-09
1.78186e-09
1.94744e-09
2.11276e-09
2.27788e-09
2.44299e-09
2.60807e-09
2.77312e-09
2.93815e-09
3.10305e-09
3.26776e-09
3.4323e-09
3.59627e-09
3.75991e-09
3.92283e-09
4.08488e-09
4.24641e-09
4.40623e-09
4.56516e-09
4.7228e-09
4.87837e-09
5.03279e-09
5.1848e-09
5.33468e-09
5.48311e-09
5.62768e-09
5.77034e-09
5.91049e-09
6.04649e-09
6.18032e-09
6.31025e-09
6.43617e-09
6.55952e-09
6.67728e-09
6.79143e-09
6.90211e-09
7.00617e-09
7.108e-09
7.20204e-09
7.29297e-09
7.37731e-09
7.45667e-09
7.53042e-09
7.59729e-09
7.65956e-09
7.71334e-09
7.76312e-09
7.80326e-09
7.83946e-09
7.86553e-09
7.88705e-09
7.89879e-09
7.90454e-09
7.90154e-09
7.89047e-09
7.87262e-09
7.84371e-09
7.81067e-09
7.76299e-09
7.71452e-09
7.64718e-09
7.57984e-09
7.49529e-09
7.40747e-09
7.30628e-09
7.19724e-09
7.07921e-09
6.94822e-09
6.81337e-09
6.65965e-09
6.50593e-09
6.33082e-09
6.15359e-09
5.96086e-09
5.7594e-09
5.54844e-09
5.32196e-09
5.09158e-09
4.83906e-09
4.58654e-09
4.30735e-09
4.02733e-09
3.87611e-09
3.72134e-09
3.56658e-09
3.41181e-09
3.24355e-09
3.07272e-09
2.90189e-09
2.7261e-09
2.5376e-09
2.34909e-09
2.15826e-09
1.95049e-09
1.74271e-09
1.52607e-09
1.29817e-09
1.0648e-09
8.17397e-10
5.58816e-10
4.26131e-10
2.8751e-10
1.45923e-10
0
)


113
(
0
1.7062e-10
3.33843e-10
4.90053e-10
6.40483e-10
7.85738e-10
9.25847e-10
1.06067e-09
1.19188e-09
1.31997e-09
1.44304e-09
1.56328e-09
1.68128e-09
1.7945e-09
1.90588e-09
2.0146e-09
2.11989e-09
2.22363e-09
2.32396e-09
2.4222e-09
2.51857e-09
2.61149e-09
2.70304e-09
2.79181e-09
2.87821e-09
2.9632e-09
3.04458e-09
3.12446e-09
3.20216e-09
3.27692e-09
3.35015e-09
3.42045e-09
3.48845e-09
3.5549e-09
3.6176e-09
3.67863e-09
3.73744e-09
3.7929e-09
3.84667e-09
3.89749e-09
3.94548e-09
3.99169e-09
4.03416e-09
4.07435e-09
4.11234e-09
4.14634e-09
4.17903e-09
4.20723e-09
4.23372e-09
4.25659e-09
4.27682e-09
4.29408e-09
4.30784e-09
4.31926e-09
4.3265e-09
4.33176e-09
4.33243e-09
4.33122e-09
4.32532e-09
4.3173e-09
4.30486e-09
4.28972e-09
4.2707e-09
4.24811e-09
4.22257e-09
4.19221e-09
4.16008e-09
4.12165e-09
4.08289e-09
4.03606e-09
3.98922e-09
3.93504e-09
3.87944e-09
3.8181e-09
3.75336e-09
3.68469e-09
3.61035e-09
3.53428e-09
3.44974e-09
3.3652e-09
3.27075e-09
3.17533e-09
3.07243e-09
2.96533e-09
2.85347e-09
2.73381e-09
2.61212e-09
2.4789e-09
2.34569e-09
2.19825e-09
2.05038e-09
1.97048e-09
1.88869e-09
1.8069e-09
1.72511e-09
1.63638e-09
1.54633e-09
1.45627e-09
1.36383e-09
1.26527e-09
1.16671e-09
1.06713e-09
9.60114e-10
8.531e-10
7.42596e-10
6.27649e-10
5.1077e-10
3.88919e-10
2.63465e-10
1.99655e-10
1.34067e-10
6.76351e-11
0
)


113
(
0
1.92787e-11
3.81052e-11
5.64569e-11
7.43778e-11
9.18809e-11
1.08935e-10
1.2548e-10
1.41647e-10
1.57481e-10
1.72731e-10
1.87623e-10
2.02233e-10
2.16194e-10
2.29889e-10
2.432e-10
2.5599e-10
2.68541e-10
2.80553e-10
2.92226e-10
3.03598e-10
3.144e-10
3.24975e-10
3.35089e-10
3.44808e-10
3.54293e-10
3.63183e-10
3.71826e-10
3.80114e-10
3.87928e-10
3.955e-10
4.02609e-10
4.09361e-10
4.15875e-10
4.21822e-10
4.27522e-10
4.32895e-10
4.37784e-10
4.42435e-10
4.46672e-10
4.5052e-10
4.54124e-10
4.5723e-10
4.60037e-10
4.62558e-10
4.64571e-10
4.66418e-10
4.67708e-10
4.6879e-10
4.69433e-10
4.69764e-10
4.69743e-10
4.69317e-10
4.68621e-10
4.67451e-10
4.66059e-10
4.64157e-10
4.62048e-10
4.59429e-10
4.56582e-10
4.53264e-10
4.49659e-10
4.4565e-10
4.41269e-10
4.36586e-10
4.31412e-10
4.26059e-10
4.20075e-10
4.14058e-10
4.07249e-10
4.00439e-10
3.92923e-10
3.85272e-10
3.77082e-10
3.68574e-10
3.59708e-10
3.50324e-10
3.40789e-10
3.30508e-10
3.20227e-10
3.09109e-10
2.97908e-10
2.86108e-10
2.7397e-10
2.61473e-10
2.48387e-10
2.3516e-10
2.21124e-10
2.07089e-10
1.92141e-10
1.77166e-10
1.69332e-10
1.61389e-10
1.53446e-10
1.45502e-10
1.37198e-10
1.28826e-10
1.20453e-10
1.1197e-10
1.03203e-10
9.44367e-11
8.56284e-11
7.65134e-11
6.73983e-11
5.81542e-11
4.87457e-11
3.92721e-11
2.96314e-11
1.98783e-11
1.49684e-11
1.0006e-11
5.01976e-12
0
)

)


10
(

113
(
0
2.99997e-28
5.08984e-27
3.91227e-26
1.56688e-25
4.63732e-25
1.14082e-24
2.53085e-24
5.20019e-24
9.83268e-24
1.72105e-23
2.87583e-23
4.78723e-23
8.22294e-23
1.47377e-22
2.83631e-22
6.13872e-22
1.36301e-21
3.01995e-21
6.55408e-21
1.37898e-20
2.80051e-20
5.49701e-20
1.12195e-19
2.2072e-19
4.20899e-19
7.91086e-19
1.58551e-18
4.57805e-18
2.69957e-17
2.38038e-16
2.16418e-15
1.81354e-14
1.3601e-13
9.30403e-13
6.45516e-12
3.83577e-11
1.80822e-10
6.63008e-10
1.86818e-09
4.06145e-09
6.93523e-09
9.57595e-09
1.12412e-08
1.17847e-08
1.15405e-08
1.09997e-08
1.05756e-08
1.05629e-08
1.11052e-08
1.22515e-08
1.40755e-08
1.66478e-08
2.00427e-08
2.43268e-08
2.98981e-08
3.6638e-08
4.44295e-08
5.31869e-08
6.30374e-08
7.32701e-08
8.33609e-08
9.29145e-08
1.00256e-07
1.05741e-07
1.08711e-07
1.07786e-07
1.05145e-07
9.9682e-08
9.29088e-08
8.53762e-08
7.7553e-08
6.99325e-08
6.29422e-08
5.66186e-08
5.09512e-08
4.63189e-08
4.20871e-08
3.91694e-08
3.64893e-08
3.50979e-08
3.39821e-08
3.37831e-08
3.38913e-08
3.44879e-08
3.52245e-08
3.60737e-08
3.66301e-08
3.70889e-08
3.64173e-08
3.52603e-08
3.41112e-08
3.2962e-08
3.15706e-08
2.97409e-08
2.79112e-08
2.59633e-08
2.37709e-08
2.15785e-08
1.93156e-08
1.69927e-08
1.46706e-08
1.23707e-08
1.00709e-08
7.91723e-09
5.7915e-09
3.97863e-09
2.37347e-09
1.11114e-09
6.15413e-10
2.83844e-10
7.12895e-11
0
)


113
(
0
7.02064e-26
1.39043e-24
2.92452e-23
3.01985e-22
2.18285e-21
1.65687e-20
1.09171e-19
6.09302e-19
3.09168e-18
1.46072e-17
5.91869e-17
2.23933e-16
7.62438e-16
2.28235e-15
6.55648e-15
1.98439e-14
5.51537e-14
1.42279e-13
3.42722e-13
7.7455e-13
1.65043e-12
3.34127e-12
6.9338e-12
1.36024e-11
2.53382e-11
4.52189e-11
7.77917e-11
1.29694e-10
2.08789e-10
3.23539e-10
4.8488e-10
7.0469e-10
9.95934e-10
1.36887e-09
1.83368e-09
2.39167e-09
3.04223e-09
3.781e-09
4.59924e-09
5.48873e-09
6.44296e-09
7.46468e-09
8.55275e-09
9.72645e-09
1.10129e-08
1.24478e-08
1.40812e-08
1.59906e-08
1.82412e-08
2.08714e-08
2.39267e-08
2.74303e-08
3.13881e-08
3.57891e-08
4.07004e-08
4.59384e-08
5.13818e-08
5.69447e-08
6.24674e-08
6.76955e-08
7.25678e-08
7.69265e-08
8.027e-08
8.29146e-08
8.4653e-08
8.50131e-08
8.4694e-08
8.31715e-08
8.07642e-08
7.78439e-08
7.39756e-08
6.99532e-08
6.55802e-08
6.12386e-08
5.69278e-08
5.29862e-08
4.91875e-08
4.61205e-08
4.31963e-08
4.11175e-08
3.92287e-08
3.79726e-08
3.69411e-08
3.62668e-08
3.57151e-08
3.5262e-08
3.46619e-08
3.40127e-08
3.28052e-08
3.13592e-08
3.03559e-08
2.93525e-08
2.82014e-08
2.67829e-08
2.53644e-08
2.38353e-08
2.20778e-08
2.03203e-08
1.84518e-08
1.64888e-08
1.4524e-08
1.25115e-08
1.04991e-08
8.56329e-09
6.64234e-09
4.91314e-09
3.30491e-09
1.90289e-09
1.28679e-09
7.75009e-10
3.44301e-10
0
)


113
(
0
2.16234e-14
7.43577e-14
1.91959e-13
4.1018e-13
7.93258e-13
1.44299e-12
2.51113e-12
4.22448e-12
6.79869e-12
1.06177e-11
1.6052e-11
2.36918e-11
3.42959e-11
4.85941e-11
6.76935e-11
9.38751e-11
1.28137e-10
1.71742e-10
2.26377e-10
2.94151e-10
3.77618e-10
4.80159e-10
6.09815e-10
7.65734e-10
9.50096e-10
1.16793e-09
1.42213e-09
1.7198e-09
2.06865e-09
2.47087e-09
2.93492e-09
3.46659e-09
4.06545e-09
4.74183e-09
5.50302e-09
6.36099e-09
7.31807e-09
8.37401e-09
9.55064e-09
1.08331e-08
1.22458e-08
1.3786e-08
1.54487e-08
1.72381e-08
1.91697e-08
2.12077e-08
2.33608e-08
2.56455e-08
2.80377e-08
3.05144e-08
3.30496e-08
3.56347e-08
3.82552e-08
4.0885e-08
4.34925e-08
4.60329e-08
4.84991e-08
5.08779e-08
5.30842e-08
5.5106e-08
5.69612e-08
5.86068e-08
5.99251e-08
6.10376e-08
6.18897e-08
6.23606e-08
6.26389e-08
6.25712e-08
6.22171e-08
6.16968e-08
6.07731e-08
5.97436e-08
5.84462e-08
5.70174e-08
5.54593e-08
5.377e-08
5.203e-08
5.01915e-08
4.8341e-08
4.64627e-08
4.45953e-08
4.27644e-08
4.09382e-08
3.91191e-08
3.72923e-08
3.54592e-08
3.35782e-08
3.16812e-08
2.96256e-08
2.75128e-08
2.63894e-08
2.5266e-08
2.40952e-08
2.28387e-08
2.15822e-08
2.02834e-08
1.88972e-08
1.7511e-08
1.60683e-08
1.45775e-08
1.30854e-08
1.15616e-08
1.00379e-08
8.50885e-09
6.97918e-09
5.48417e-09
4.02449e-09
2.62923e-09
1.96017e-09
1.32415e-09
6.92964e-10
0
)


113
(
0
6.79416e-12
1.57028e-11
2.83014e-11
4.50168e-11
6.67545e-11
9.45793e-11
1.29645e-10
1.73181e-10
2.26474e-10
2.90876e-10
3.67809e-10
4.58979e-10
5.6625e-10
6.91441e-10
8.38711e-10
1.00767e-09
1.20005e-09
1.41913e-09
1.66608e-09
1.94401e-09
2.25718e-09
2.5979e-09
2.99269e-09
3.42348e-09
3.89513e-09
4.41458e-09
4.98393e-09
5.60189e-09
6.26889e-09
6.98916e-09
7.76627e-09
8.59934e-09
9.47446e-09
1.0422e-08
1.14521e-08
1.24969e-08
1.3609e-08
1.47761e-08
1.60088e-08
1.7269e-08
1.85982e-08
1.99593e-08
2.13679e-08
2.27984e-08
2.42547e-08
2.57387e-08
2.72662e-08
2.87685e-08
3.03002e-08
3.18208e-08
3.33158e-08
3.47948e-08
3.62576e-08
3.76887e-08
3.90581e-08
4.03749e-08
4.16343e-08
4.28334e-08
4.39454e-08
4.49696e-08
4.59169e-08
4.67695e-08
4.74845e-08
4.81205e-08
4.86592e-08
4.90395e-08
4.934e-08
4.94967e-08
4.95268e-08
4.94833e-08
4.92581e-08
4.89735e-08
4.85338e-08
4.79825e-08
4.73212e-08
4.65154e-08
4.56535e-08
4.462e-08
4.3554e-08
4.23022e-08
4.10162e-08
3.96165e-08
3.81405e-08
3.65432e-08
3.48388e-08
3.3048e-08
3.11142e-08
2.91328e-08
2.70561e-08
2.49365e-08
2.38261e-08
2.27157e-08
2.15823e-08
2.04073e-08
1.92322e-08
1.80393e-08
1.68096e-08
1.55799e-08
1.4328e-08
1.30572e-08
1.17856e-08
1.04919e-08
9.19815e-09
7.90291e-09
6.60752e-09
5.32699e-09
4.05402e-09
2.78475e-09
2.14631e-09
1.48496e-09
7.84956e-10
0
)


113
(
0
7.79065e-11
1.58545e-10
2.50777e-10
3.56505e-10
4.77786e-10
6.16253e-10
7.73113e-10
9.49318e-10
1.14568e-09
1.36294e-09
1.60183e-09
1.86308e-09
2.14742e-09
2.45557e-09
2.79011e-09
3.15345e-09
3.54312e-09
3.95965e-09
4.40359e-09
4.87546e-09
5.3757e-09
5.90478e-09
6.46739e-09
7.06444e-09
7.69698e-09
8.36542e-09
9.06122e-09
9.77591e-09
1.05193e-08
1.12945e-08
1.20614e-08
1.2897e-08
1.37228e-08
1.4581e-08
1.54629e-08
1.63675e-08
1.72683e-08
1.82286e-08
1.91457e-08
2.01023e-08
2.10746e-08
2.20389e-08
2.30197e-08
2.39979e-08
2.49733e-08
2.59348e-08
2.69124e-08
2.78555e-08
2.87818e-08
2.9707e-08
3.06072e-08
3.14842e-08
3.23345e-08
3.3144e-08
3.39409e-08
3.4694e-08
3.5411e-08
3.60911e-08
3.67015e-08
3.72775e-08
3.78093e-08
3.82758e-08
3.86718e-08
3.9031e-08
3.93464e-08
3.95562e-08
3.97166e-08
3.97924e-08
3.98045e-08
3.97795e-08
3.95921e-08
3.93599e-08
3.90128e-08
3.8583e-08
3.80717e-08
3.74827e-08
3.68636e-08
3.61199e-08
3.53519e-08
3.44391e-08
3.34897e-08
3.24187e-08
3.12869e-08
3.00583e-08
2.87441e-08
2.73609e-08
2.58659e-08
2.43336e-08
2.2662e-08
2.09515e-08
2.0051e-08
1.91505e-08
1.82302e-08
1.72741e-08
1.6318e-08
1.53473e-08
1.43466e-08
1.33459e-08
1.23281e-08
1.12955e-08
1.02622e-08
9.20905e-09
8.15588e-09
7.08891e-09
6.01937e-09
4.92696e-09
3.81329e-09
2.65643e-09
2.05625e-09
1.41739e-09
7.39661e-10
0
)


113
(
0
2.50469e-10
4.88388e-10
7.29978e-10
9.81729e-10
1.24754e-09
1.5299e-09
1.83013e-09
2.14879e-09
2.48591e-09
2.84132e-09
3.21474e-09
3.60583e-09
4.01432e-09
4.43987e-09
4.88337e-09
5.34536e-09
5.8234e-09
6.31709e-09
6.82609e-09
7.35001e-09
7.88846e-09
8.44102e-09
9.00916e-09
9.59e-09
1.0183e-08
1.07874e-08
1.14028e-08
1.20282e-08
1.2663e-08
1.33064e-08
1.39575e-08
1.46153e-08
1.52819e-08
1.60086e-08
1.66829e-08
1.73597e-08
1.80381e-08
1.87169e-08
1.93949e-08
2.00711e-08
2.07443e-08
2.14133e-08
2.21081e-08
2.29879e-08
2.37099e-08
2.43967e-08
2.50364e-08
2.56991e-08
2.631e-08
2.68761e-08
2.74114e-08
2.79156e-08
2.83838e-08
2.88124e-08
2.91846e-08
2.94714e-08
2.95882e-08
2.95869e-08
2.9897e-08
3.01709e-08
3.04152e-08
3.06243e-08
3.07831e-08
3.0911e-08
3.10003e-08
3.10456e-08
3.10578e-08
3.09993e-08
3.08921e-08
3.07566e-08
3.05416e-08
3.03012e-08
2.99949e-08
2.96414e-08
2.92413e-08
2.877e-08
2.82711e-08
2.76784e-08
2.70681e-08
2.63591e-08
2.56248e-08
2.48066e-08
2.39458e-08
2.30176e-08
2.20291e-08
2.09921e-08
1.98763e-08
1.87343e-08
1.74947e-08
1.62278e-08
1.55628e-08
1.48978e-08
1.42188e-08
1.35144e-08
1.28099e-08
1.20943e-08
1.13553e-08
1.06164e-08
9.86028e-09
9.08961e-09
8.31768e-09
7.514e-09
6.71032e-09
5.87309e-09
5.02963e-09
4.13671e-09
3.21235e-09
2.23386e-09
1.72189e-09
1.17794e-09
6.07378e-10
0
)


113
(
0
4.25333e-10
8.21696e-10
1.20331e-09
1.5796e-09
1.95541e-09
2.3342e-09
2.71832e-09
3.10921e-09
3.50765e-09
3.914e-09
4.32834e-09
4.75056e-09
5.18049e-09
5.61786e-09
6.06284e-09
6.51533e-09
6.97402e-09
7.43849e-09
7.90833e-09
8.3831e-09
8.86238e-09
9.34572e-09
9.77613e-09
1.02492e-08
1.07301e-08
1.12115e-08
1.1693e-08
1.21739e-08
1.26535e-08
1.31313e-08
1.36066e-08
1.40787e-08
1.4547e-08
1.50108e-08
1.54692e-08
1.59217e-08
1.63677e-08
1.68065e-08
1.72372e-08
1.76594e-08
1.80719e-08
1.84741e-08
1.88655e-08
1.92454e-08
1.9613e-08
1.99677e-08
2.03088e-08
2.06346e-08
2.09444e-08
2.12382e-08
2.15152e-08
2.1775e-08
2.20173e-08
2.22418e-08
2.24426e-08
2.26224e-08
2.27826e-08
2.29235e-08
2.30372e-08
2.31258e-08
2.31941e-08
2.32386e-08
2.32492e-08
2.32395e-08
2.32043e-08
2.3132e-08
2.30406e-08
2.29143e-08
2.27564e-08
2.25801e-08
2.23526e-08
2.2109e-08
2.18235e-08
2.15083e-08
2.11639e-08
2.07752e-08
2.03694e-08
1.99619e-08
1.95435e-08
1.89955e-08
1.84329e-08
1.78217e-08
1.7186e-08
1.65114e-08
1.5802e-08
1.50647e-08
1.42814e-08
1.34828e-08
1.26252e-08
1.17499e-08
1.12916e-08
1.08334e-08
1.03648e-08
9.8774e-09
9.39e-09
8.89269e-09
8.3749e-09
7.85711e-09
7.32141e-09
6.77044e-09
6.21805e-09
5.62953e-09
5.04101e-09
4.41606e-09
3.7844e-09
3.10587e-09
2.40205e-09
1.6575e-09
1.26964e-09
8.62368e-10
4.40514e-10
0
)


113
(
0
4.8436e-10
9.39066e-10
1.3706e-09
1.78613e-09
2.18884e-09
2.58131e-09
2.96576e-09
3.34396e-09
3.71723e-09
4.08656e-09
4.45264e-09
4.81596e-09
5.17686e-09
5.53556e-09
5.89204e-09
6.24622e-09
6.5983e-09
6.94819e-09
7.29577e-09
7.64085e-09
7.98323e-09
8.32269e-09
8.65844e-09
8.99069e-09
9.31917e-09
9.64357e-09
9.96359e-09
1.02789e-08
1.05892e-08
1.08942e-08
1.11934e-08
1.14867e-08
1.17735e-08
1.20537e-08
1.23266e-08
1.25922e-08
1.28501e-08
1.30999e-08
1.33415e-08
1.35745e-08
1.37982e-08
1.40124e-08
1.4217e-08
1.44118e-08
1.45963e-08
1.47703e-08
1.49336e-08
1.5085e-08
1.52244e-08
1.53521e-08
1.54677e-08
1.55711e-08
1.56623e-08
1.57413e-08
1.58044e-08
1.58537e-08
1.58902e-08
1.59143e-08
1.59213e-08
1.59126e-08
1.58915e-08
1.58557e-08
1.57998e-08
1.57318e-08
1.56487e-08
1.55442e-08
1.54288e-08
1.52935e-08
1.51405e-08
1.49772e-08
1.47857e-08
1.45854e-08
1.43623e-08
1.41233e-08
1.38686e-08
1.35903e-08
1.33029e-08
1.2985e-08
1.26613e-08
1.23058e-08
1.19421e-08
1.15512e-08
1.11464e-08
1.07194e-08
1.02719e-08
9.80792e-09
9.31523e-09
8.81297e-09
8.27116e-09
7.71656e-09
7.42435e-09
7.13213e-09
6.83184e-09
6.51692e-09
6.20201e-09
5.87907e-09
5.53953e-09
5.19999e-09
4.846e-09
4.47971e-09
4.11234e-09
3.71735e-09
3.32237e-09
2.90191e-09
2.4768e-09
2.02221e-09
1.55334e-09
1.06234e-09
8.08883e-10
5.46219e-10
2.77071e-10
0
)


113
(
0
3.60585e-10
7.04522e-10
1.03287e-09
1.34851e-09
1.65224e-09
1.9448e-09
2.22704e-09
2.49982e-09
2.76388e-09
3.01992e-09
3.26846e-09
3.51e-09
3.7449e-09
3.97349e-09
4.19563e-09
4.41127e-09
4.62134e-09
4.82601e-09
5.02539e-09
5.21958e-09
5.40866e-09
5.59266e-09
5.77089e-09
5.9442e-09
6.11261e-09
6.27611e-09
6.43471e-09
6.58838e-09
6.73711e-09
6.88086e-09
7.01961e-09
7.15331e-09
7.28192e-09
7.4054e-09
7.52358e-09
7.63653e-09
7.74425e-09
7.84669e-09
7.94379e-09
8.0355e-09
8.12159e-09
8.20208e-09
8.27699e-09
8.34628e-09
8.40989e-09
8.46778e-09
8.51992e-09
8.56582e-09
8.60551e-09
8.63921e-09
8.66684e-09
8.68845e-09
8.70407e-09
8.71381e-09
8.71591e-09
8.71153e-09
8.7012e-09
8.68509e-09
8.66107e-09
8.62998e-09
8.59323e-09
8.54991e-09
8.49754e-09
8.43982e-09
8.37543e-09
8.30154e-09
8.22281e-09
8.13533e-09
8.03999e-09
7.94011e-09
7.82768e-09
7.71131e-09
7.58472e-09
7.45087e-09
7.30989e-09
7.15796e-09
7.0018e-09
6.83109e-09
6.65764e-09
6.46856e-09
6.27535e-09
6.06837e-09
5.85406e-09
5.6281e-09
5.39098e-09
5.14487e-09
4.88273e-09
4.61523e-09
4.32526e-09
4.02802e-09
3.87094e-09
3.71385e-09
3.55228e-09
3.38261e-09
3.21293e-09
3.03901e-09
2.85628e-09
2.67356e-09
2.48369e-09
2.28771e-09
2.09124e-09
1.88217e-09
1.6731e-09
1.45341e-09
1.23179e-09
9.98941e-10
7.6109e-10
5.15703e-10
3.90421e-10
2.62306e-10
1.32283e-10
0
)


113
(
0
3.87421e-11
7.65576e-11
1.1341e-10
1.49401e-10
1.84515e-10
2.18737e-10
2.52068e-10
2.8452e-10
3.16107e-10
3.46846e-10
3.76752e-10
4.05839e-10
4.34116e-10
4.61594e-10
4.88223e-10
5.13966e-10
5.38928e-10
5.63117e-10
5.86536e-10
6.09188e-10
6.31076e-10
6.522e-10
6.72447e-10
6.91947e-10
7.107e-10
7.28709e-10
7.45974e-10
7.62497e-10
7.7828e-10
7.93324e-10
8.0763e-10
8.21201e-10
8.34037e-10
8.4614e-10
8.57496e-10
8.68125e-10
8.78033e-10
8.87224e-10
8.95698e-10
9.03457e-10
9.10482e-10
9.16784e-10
9.22373e-10
9.27255e-10
9.31429e-10
9.34899e-10
9.37669e-10
9.39688e-10
9.40968e-10
9.41544e-10
9.41413e-10
9.40588e-10
9.39079e-10
9.36901e-10
9.33867e-10
9.30113e-10
9.25702e-10
9.20659e-10
9.14757e-10
9.08094e-10
9.00827e-10
8.92861e-10
8.83944e-10
8.74468e-10
8.64297e-10
8.5315e-10
8.41507e-10
8.28975e-10
8.15654e-10
8.01877e-10
7.86858e-10
7.71456e-10
7.55059e-10
7.37968e-10
7.20196e-10
7.01402e-10
6.82213e-10
6.61701e-10
6.40944e-10
6.1881e-10
5.96327e-10
5.72677e-10
5.48435e-10
5.23251e-10
4.97211e-10
4.70484e-10
4.42603e-10
4.14338e-10
3.84569e-10
3.54351e-10
3.3872e-10
3.23089e-10
3.07204e-10
2.90861e-10
2.74518e-10
2.57957e-10
2.40942e-10
2.23927e-10
2.06578e-10
1.88943e-10
1.71286e-10
1.53093e-10
1.349e-10
1.16292e-10
9.76097e-11
7.85234e-11
5.92692e-11
3.97673e-11
2.99343e-11
2.00153e-11
1.00402e-11
0
)

)


10
(

113
(
0
6.01265e-25
7.66923e-24
3.99579e-23
1.32965e-22
3.54581e-22
8.0752e-22
1.6266e-21
2.90189e-21
4.58139e-21
6.57298e-21
8.78417e-21
1.1325e-20
1.45538e-20
1.90923e-20
2.70667e-20
4.045e-20
6.17769e-20
9.355e-20
1.5305e-19
2.54538e-19
4.38e-19
8.12667e-19
1.65846e-18
3.55077e-18
1.346e-17
6.7625e-17
3.7275e-16
1.97675e-15
8.73833e-15
3.95217e-14
2.59745e-13
1.48933e-12
7.34e-12
3.24909e-11
1.32127e-10
4.56818e-10
1.35e-09
3.45e-09
7.90455e-09
1.47727e-08
2.38e-08
3.23182e-08
3.984e-08
4.54364e-08
4.99091e-08
5.45e-08
6.01333e-08
6.72833e-08
7.67e-08
8.79308e-08
1.01625e-07
1.17077e-07
1.33143e-07
1.48857e-07
1.62857e-07
1.75286e-07
1.86e-07
1.9e-07
1.91063e-07
1.89187e-07
1.81687e-07
1.72437e-07
1.60562e-07
1.47529e-07
1.34e-07
1.21778e-07
1.09756e-07
9.85333e-08
8.82e-08
7.92e-08
7.16842e-08
6.51579e-08
5.99211e-08
5.52368e-08
5.21e-08
4.935e-08
4.784e-08
4.664e-08
4.664e-08
4.694e-08
4.836e-08
5.006e-08
5.27158e-08
5.56105e-08
5.86e-08
6.16e-08
6.36e-08
6.51833e-08
6.40167e-08
6.18412e-08
5.95765e-08
5.73118e-08
5.48188e-08
5.14125e-08
4.80063e-08
4.46e-08
4.08e-08
3.7e-08
3.32e-08
2.8825e-08
2.445e-08
2.03818e-08
1.65182e-08
1.28178e-08
9.36222e-09
6.28286e-09
3.65167e-09
1.81e-09
1.13625e-09
5e-10
1.33675e-10
0
)


113
(
0
2.13951e-23
1.12957e-22
5.03502e-22
2.67987e-21
1.64582e-20
1.11304e-19
6.89482e-19
3.94281e-18
2.0423e-17
9.27833e-17
3.63992e-16
1.21094e-15
3.61689e-15
1.15198e-14
3.60678e-14
1.0368e-13
2.74016e-13
6.11665e-13
1.41852e-12
3.44845e-12
7.4962e-12
1.53221e-11
2.95607e-11
5.43093e-11
1.02322e-10
1.84838e-10
3.17666e-10
5.21479e-10
8.22334e-10
1.27518e-09
1.93101e-09
2.84764e-09
4.05931e-09
5.6105e-09
7.58378e-09
1.00129e-08
1.29398e-08
1.63929e-08
2.04484e-08
2.50498e-08
3.0188e-08
3.58902e-08
4.21084e-08
4.88811e-08
5.61478e-08
6.39039e-08
7.2119e-08
8.06933e-08
8.9564e-08
9.86377e-08
1.07669e-07
1.16484e-07
1.24929e-07
1.32686e-07
1.39357e-07
1.45026e-07
1.496e-07
1.51963e-07
1.53049e-07
1.52858e-07
1.50366e-07
1.4695e-07
1.41973e-07
1.35799e-07
1.29113e-07
1.21372e-07
1.13582e-07
1.05593e-07
9.7793e-08
9.0275e-08
8.33771e-08
7.68927e-08
7.13875e-08
6.6302e-08
6.24719e-08
5.89555e-08
5.66992e-08
5.47577e-08
5.39143e-08
5.33454e-08
5.36057e-08
5.40732e-08
5.49614e-08
5.59549e-08
5.68074e-08
5.76443e-08
5.76834e-08
5.7485e-08
5.59462e-08
5.38621e-08
5.21839e-08
5.05058e-08
4.86557e-08
4.61176e-08
4.35794e-08
4.10413e-08
3.78642e-08
3.4687e-08
3.15099e-08
2.80298e-08
2.45497e-08
2.10785e-08
1.76132e-08
1.42549e-08
1.10567e-08
8.10622e-09