/*--------------------------------*- C++ -*----------------------------------*\
| =========                 |                                                 |
| \\      /  F ield         | OpenFOAM: The Open Source CFD Toolbox           |
|  \\    /   O peration     | Version:  2.3.0                                 |
|   \\  /    A nd           | Web:      www.OpenFOAM.org                      |
|    \\/     M anipulation  |                                                 |
\*---------------------------------------------------------------------------*/
FoamFile
{
    version     2.0;
    format      ascii;
    class       dictionary;
    location    "constant";
    object      CH3OH;
}
// * * * * * * * * * * * * * * * * * * * * * * * * * * * * * * * * * * * * * //

CH3OH_table
13
(

10
(

113
(
0
1.6675e-26
1.15316e-26
7.9857e-27
5.65754e-27
4.35786e-27
4.14357e-27
5.51672e-27
9.11386e-27
1.53728e-26
3.21278e-26
6.91154e-26
1.22e-25
3.18855e-25
8.28447e-25
1.78807e-24
6.60331e-24
1.79512e-23
5.64878e-23
2.1162e-22
4.70147e-22
1.93051e-21
5.4516e-21
1.44578e-20
4.57494e-20
9.2505e-20
2.82753e-19
7.75714e-19
1.70429e-18
1.76435e-17
2.91342e-16
1.52059e-15
4.68868e-14
1.84925e-13
3.48115e-12
4.69013e-11
1.43509e-10
1.54705e-09
6.64646e-09
2.11148e-08
6.88459e-08
1.40025e-07
2.73565e-07
4.19928e-07
5.78611e-07
7.23445e-07
8.6352e-07
9.86425e-07
1.10805e-06
1.22697e-06
1.34027e-06
1.44722e-06
1.5525e-06
1.65667e-06
1.76594e-06
1.87761e-06
2.00139e-06
2.1301e-06
2.28333e-06
2.44758e-06
2.66057e-06
2.90343e-06
3.20467e-06
3.55981e-06
3.98407e-06
4.52111e-06
5.12972e-06
5.99211e-06
6.88327e-06
8.46509e-06
1.00469e-05
1.29986e-05
1.62113e-05
2.1827e-05
2.88541e-05
3.82714e-05
5.11286e-05
6.46735e-05
8.15761e-05
9.84788e-05
0.00011363
0.000128608
0.000138814
0.000146336
0.00015083
0.000150381
0.000148968
0.000142087
0.000135206
0.000123861
0.000112378
0.000106211
9.99102e-05
9.36092e-05
8.73082e-05
8.08494e-05
7.43607e-05
6.78719e-05
6.14722e-05
5.53013e-05
4.91304e-05
4.3006e-05
3.72224e-05
3.14388e-05
2.58778e-05
2.06e-05
1.54726e-05
1.07319e-05
6.40339e-06
4.36886e-06
2.60457e-06
1.071e-06
0
)


113
(
0
3.89764e-25
1.49214e-23
3.64626e-22
3.63674e-21
3.3696e-20
1.84505e-19
1.52718e-18
1.07431e-17
3.77359e-17
2.06159e-16
1.0467e-15
2.41534e-15
1.23133e-14
4.27681e-14
1.02805e-13
3.97959e-13
9.48815e-13
2.46111e-12
6.91449e-12
1.3976e-11
3.82183e-11
7.91791e-11
1.6229e-10
3.43821e-10
5.88351e-10
1.2071e-09
2.17048e-09
3.62981e-09
6.39818e-09
1.01164e-08
1.61765e-08
2.52469e-08
3.63868e-08
5.46282e-08
7.71478e-08
1.05339e-07
1.44032e-07
1.88407e-07
2.43131e-07
3.08028e-07
3.79196e-07
4.62829e-07
5.52966e-07
6.4935e-07
7.54478e-07
8.62172e-07
9.77146e-07
1.09438e-06
1.21643e-06
1.34263e-06
1.47352e-06
1.61352e-06
1.75961e-06
1.92494e-06
2.09933e-06
2.31129e-06
2.5386e-06
2.83312e-06
3.15784e-06
3.59102e-06
4.09068e-06
4.75591e-06
5.57398e-06
6.60238e-06
7.97398e-06
9.54574e-06
1.18272e-05
1.41639e-05
1.78263e-05
2.14887e-05
2.6702e-05
3.22107e-05
3.90175e-05
4.65867e-05
5.48664e-05
6.41687e-05
7.35771e-05
8.35043e-05
9.34314e-05
0.000102278
0.000111017
0.00011775
0.000123355
0.000127235
0.000128303
0.000128644
0.000124869
0.000121093
0.000113425
0.000105636
0.000100744
9.55359e-05
9.03279e-05
8.51199e-05
7.94006e-05
7.35838e-05
6.7767e-05
6.19238e-05
5.60122e-05
5.01007e-05
4.42158e-05
3.85262e-05
3.28365e-05
2.73217e-05
2.20293e-05
1.68696e-05
1.20509e-05
7.54361e-06
5.38909e-06
3.45188e-06
1.65557e-06
0
)


113
(
0
8.39412e-13
2.92612e-12
7.63344e-12
1.66526e-11
3.23036e-11
5.86542e-11
1.08949e-10
1.86719e-10
2.92454e-10
4.69064e-10
7.31612e-10
1.06168e-09
1.62754e-09
2.33979e-09
3.2627e-09
4.65444e-09
6.3043e-09
8.64216e-09
1.16224e-08
1.51722e-08
2.00325e-08
2.56436e-08
3.29772e-08
4.20306e-08
5.21163e-08
6.5382e-08
8.03613e-08
9.78066e-08
1.19254e-07
1.42938e-07
1.71273e-07
2.03879e-07
2.39385e-07
2.83214e-07
3.3099e-07
3.83996e-07
4.47394e-07
5.16203e-07
5.94682e-07
6.85309e-07
7.83833e-07
9.00249e-07
1.0323e-06
1.17937e-06
1.35429e-06
1.5416e-06
1.78637e-06
2.04946e-06
2.35149e-06
2.70832e-06
3.12693e-06
3.62147e-06
4.16663e-06
4.84485e-06
5.58569e-06
6.49495e-06
7.47302e-06
8.6865e-06
1.00057e-05
1.15786e-05
1.33068e-05
1.52978e-05
1.75314e-05
1.998e-05
2.27795e-05
2.57166e-05
2.91415e-05
3.25909e-05
3.66261e-05
4.06612e-05
4.51337e-05
4.96895e-05
5.44502e-05
5.93312e-05
6.42186e-05
6.9115e-05
7.39396e-05
7.84132e-05
8.28868e-05
8.65469e-05
9.01266e-05
9.27529e-05
9.48431e-05
9.62126e-05
9.64064e-05
9.62728e-05
9.42844e-05
9.22959e-05
8.80806e-05
8.37965e-05
8.08936e-05
7.77506e-05
7.46075e-05
7.14645e-05
6.76589e-05
6.37271e-05
5.97954e-05
5.56901e-05
5.11387e-05
4.65873e-05
4.20119e-05
3.72609e-05
3.25098e-05
2.77362e-05
2.29339e-05
1.8163e-05
1.34728e-05
8.93294e-06
6.7092e-06
4.57078e-06
2.41058e-06
0
)


113
(
0
4.00636e-10
9.33999e-10
1.69641e-09
2.72574e-09
4.06716e-09
5.81113e-09
8.13815e-09
1.1002e-08
1.43788e-08
1.8869e-08
2.42457e-08
3.03191e-08
3.86828e-08
4.802e-08
5.87578e-08
7.22572e-08
8.72392e-08
1.06088e-07
1.27547e-07
1.51319e-07
1.80963e-07
2.137e-07
2.53384e-07
2.99224e-07
3.48729e-07
4.08196e-07
4.76303e-07
5.56844e-07
6.48852e-07
7.47393e-07
8.59728e-07
9.94338e-07
1.14368e-06
1.31708e-06
1.50815e-06
1.72266e-06
1.9766e-06
2.24913e-06
2.55312e-06
2.9047e-06
3.28554e-06
3.72419e-06
4.21047e-06
4.74252e-06
5.3416e-06
5.97001e-06
6.73244e-06
7.52214e-06
8.36976e-06
9.30932e-06
1.03525e-05
1.15004e-05
1.27179e-05
1.40408e-05
1.54133e-05
1.69869e-05
1.86427e-05
2.04047e-05
2.22145e-05
2.41884e-05
2.62631e-05
2.84369e-05
3.07024e-05
3.30444e-05
3.55112e-05
3.80104e-05
4.06244e-05
4.32415e-05
4.59314e-05
4.86213e-05
5.12952e-05
5.39661e-05
5.65429e-05
5.90645e-05
6.14787e-05
6.37386e-05
6.59183e-05
6.77066e-05
6.94949e-05
7.07322e-05
7.19149e-05
7.25338e-05
7.28356e-05
7.27563e-05
7.20555e-05
7.11711e-05
6.92461e-05
6.73212e-05
6.43406e-05
6.13273e-05
5.93758e-05
5.72837e-05
5.51917e-05
5.30997e-05
5.056e-05
4.79351e-05
4.53102e-05
4.25607e-05
3.94911e-05
3.64214e-05
3.33127e-05
2.99176e-05
2.65226e-05
2.30459e-05
1.94654e-05
1.58611e-05
1.21956e-05
8.45807e-06
6.56096e-06
4.55127e-06
2.41745e-06
0
)


113
(
0
9.94201e-09
2.07775e-08
3.37403e-08
4.92429e-08
6.76122e-08
8.94812e-08
1.15983e-07
1.46417e-07
1.80503e-07
2.21919e-07
2.6867e-07
3.19611e-07
3.81934e-07
4.49765e-07
5.25522e-07
6.13871e-07
7.08481e-07
8.18279e-07
9.3919e-07
1.06995e-06
1.22221e-06
1.38385e-06
1.56543e-06
1.77183e-06
1.99278e-06
2.24281e-06
2.50657e-06
2.79009e-06
3.10661e-06
3.44262e-06
3.82095e-06
4.22615e-06
4.64933e-06
5.11248e-06
5.61276e-06
6.16224e-06
6.72456e-06
7.31374e-06
7.96943e-06
8.67656e-06
9.41025e-06
1.01691e-05
1.0992e-05
1.18762e-05
1.28171e-05
1.3775e-05
1.47831e-05
1.58286e-05
1.69533e-05
1.81253e-05
1.93507e-05
2.05983e-05
2.18608e-05
2.3245e-05
2.46863e-05
2.61142e-05
2.75367e-05
2.90339e-05
3.05648e-05
3.21199e-05
3.369e-05
3.52771e-05
3.68797e-05
3.84747e-05
4.0057e-05
4.16331e-05
4.31872e-05
4.47368e-05
4.61788e-05
4.76208e-05
4.88954e-05
5.01381e-05
5.12591e-05
5.23087e-05
5.32367e-05
5.39898e-05
5.46901e-05
5.51333e-05
5.55764e-05
5.5629e-05
5.56431e-05
5.53333e-05
5.48413e-05
5.41307e-05
5.30632e-05
5.19009e-05
5.02013e-05
4.85018e-05
4.61566e-05
4.37915e-05
4.23564e-05
4.08416e-05
3.93267e-05
3.78119e-05
3.60374e-05
3.42135e-05
3.23897e-05
3.04918e-05
2.84038e-05
2.63158e-05
2.42025e-05
2.19038e-05
1.96052e-05
1.72284e-05
1.4752e-05
1.22207e-05
9.54825e-06
6.70605e-06
5.22902e-06
3.6117e-06
1.89471e-06
0
)


113
(
0
8.41415e-08
1.67598e-07
2.55774e-07
3.51007e-07
4.54634e-07
5.68586e-07
6.95757e-07
8.33576e-07
9.81083e-07
1.14677e-06
1.32458e-06
1.51191e-06
1.72288e-06
1.9443e-06
2.18075e-06
2.43909e-06
2.70785e-06
3.00082e-06
3.31008e-06
3.63379e-06
3.98653e-06
4.35125e-06
4.74084e-06
5.1527e-06
5.5778e-06
6.0381e-06
6.51354e-06
7.01077e-06
7.53811e-06
8.08103e-06
8.65422e-06
9.25113e-06
9.86415e-06
1.05236e-05
1.11967e-05
1.1888e-05
1.26124e-05
1.3353e-05
1.41217e-05
1.49164e-05
1.57273e-05
1.65709e-05
1.74746e-05
1.8436e-05
1.94182e-05
2.04125e-05
2.14725e-05
2.2506e-05
2.34834e-05
2.44796e-05
2.5497e-05
2.64985e-05
2.74893e-05
2.84517e-05
2.94008e-05
3.01455e-05
3.08066e-05
3.16741e-05
3.26344e-05
3.3573e-05
3.44982e-05
3.5396e-05
3.62685e-05
3.71133e-05
3.79128e-05
3.86912e-05
3.93946e-05
4.00929e-05
4.06698e-05
4.12467e-05
4.17017e-05
4.21335e-05
4.24557e-05
4.27135e-05
4.2887e-05
4.29394e-05
4.29512e-05
4.27646e-05
4.2578e-05
4.21426e-05
4.16826e-05
4.10266e-05
4.02604e-05
3.93673e-05
3.8267e-05
3.71135e-05
3.5659e-05
3.42045e-05
3.23992e-05
3.05831e-05
2.95411e-05
2.84568e-05
2.73725e-05
2.62882e-05
2.50654e-05
2.38161e-05
2.25668e-05
2.12745e-05
1.98713e-05
1.84682e-05
1.70467e-05
1.54906e-05
1.39344e-05
1.23039e-05
1.05788e-05
8.7983e-06
6.8754e-06
4.80813e-06
3.72899e-06
2.55414e-06
1.32254e-06
0
)


113
(
0
2.76532e-07
5.41166e-07
8.02492e-07
1.06615e-06
1.33516e-06
1.61245e-06
1.9018e-06
2.20128e-06
2.51006e-06
2.83644e-06
3.17434e-06
3.52129e-06
3.8899e-06
4.26763e-06
4.65851e-06
5.06746e-06
5.48479e-06
5.92095e-06
6.36904e-06
6.82769e-06
7.30631e-06
7.79355e-06
8.29905e-06
8.81268e-06
9.33126e-06
9.86806e-06
1.0412e-05
1.09664e-05
1.15337e-05
1.21075e-05
1.26931e-05
1.3287e-05
1.38865e-05
1.44978e-05
1.51136e-05
1.57352e-05
1.63641e-05
1.6996e-05
1.76326e-05
1.82722e-05
1.89134e-05
1.95563e-05
2.01988e-05
2.08411e-05
2.14801e-05
2.21177e-05
2.27485e-05
2.33756e-05
2.39944e-05
2.46054e-05
2.52073e-05
2.57958e-05
2.63753e-05
2.69351e-05
2.74856e-05
2.80105e-05
2.85247e-05
2.90083e-05
2.94781e-05
2.99146e-05
3.03308e-05
3.07141e-05
3.1067e-05
3.13918e-05
3.16708e-05
3.19312e-05
3.21253e-05
3.23156e-05
3.24132e-05
3.25108e-05
3.25171e-05
3.25061e-05
3.24188e-05
3.22869e-05
3.21001e-05
3.18345e-05
3.15561e-05
3.12159e-05
3.08757e-05
3.03075e-05
2.97167e-05
2.90196e-05
2.82626e-05
2.74392e-05
2.65073e-05
2.55482e-05
2.44352e-05
2.33222e-05
2.20298e-05
2.07318e-05
2.00114e-05
1.92684e-05
1.85254e-05
1.77824e-05
1.69581e-05
1.61183e-05
1.52785e-05
1.44097e-05
1.34664e-05
1.2523e-05
1.15658e-05
1.05072e-05
9.44856e-06
8.33317e-06
7.14552e-06
5.9193e-06
4.59386e-06
3.18092e-06
2.4475e-06
1.66335e-06
8.52137e-07
0
)


113
(
0
4.82264e-07
9.4151e-07
1.38345e-06
1.81433e-06
2.23752e-06
2.65512e-06
3.06946e-06
3.48286e-06
3.89583e-06
4.30981e-06
4.72528e-06
5.14191e-06
5.56221e-06
5.98424e-06
6.40876e-06
6.83675e-06
7.26632e-06
7.69936e-06
8.13435e-06
8.57109e-06
9.01057e-06
9.45093e-06
9.89295e-06
1.03358e-05
1.07791e-05
1.12227e-05
1.1666e-05
1.21088e-05
1.255e-05
1.29902e-05
1.34279e-05
1.3863e-05
1.42962e-05
1.47239e-05
1.51486e-05
1.55693e-05
1.59829e-05
1.63927e-05
1.67953e-05
1.71903e-05
1.75803e-05
1.7959e-05
1.83303e-05
1.86943e-05
1.90439e-05
1.93886e-05
1.97159e-05
2.00359e-05
2.03407e-05
2.06336e-05
2.09131e-05
2.11756e-05
2.14269e-05
2.16566e-05
2.18762e-05
2.20708e-05
2.22552e-05
2.24125e-05
2.25576e-05
2.2676e-05
2.2778e-05
2.28555e-05
2.29102e-05
2.29455e-05
2.29488e-05
2.294e-05
2.2888e-05
2.28336e-05
2.27221e-05
2.26106e-05
2.24458e-05
2.22707e-05
2.20532e-05
2.18108e-05
2.1539e-05
2.1225e-05
2.08981e-05
2.05081e-05
2.01181e-05
1.96549e-05
1.91843e-05
1.86593e-05
1.81037e-05
1.75138e-05
1.68681e-05
1.62081e-05
1.54668e-05
1.47255e-05
1.38847e-05
1.30408e-05
1.25766e-05
1.2099e-05
1.16215e-05
1.11439e-05
1.06153e-05
1.00771e-05
9.5388e-06
8.98188e-06
8.37701e-06
7.77215e-06
7.15863e-06
6.48163e-06
5.80464e-06
5.09472e-06
4.34291e-06
3.57094e-06
2.74714e-06
1.88228e-06
1.43738e-06
9.70754e-07
4.93289e-07
0
)


113
(
0
4.72327e-07
9.2561e-07
1.36091e-06
1.78145e-06
2.18883e-06
2.58318e-06
2.96422e-06
3.33618e-06
3.70035e-06
4.05204e-06
4.39668e-06
4.7358e-06
5.06315e-06
5.38596e-06
5.70224e-06
6.01013e-06
6.3142e-06
6.60991e-06
6.90048e-06
7.18648e-06
7.46396e-06
7.73806e-06
8.00527e-06
8.26657e-06
8.52436e-06
8.77309e-06
9.018e-06
9.25741e-06
9.48929e-06
9.71727e-06
9.93767e-06
1.01521e-05
1.03625e-05
1.0563e-05
1.07591e-05
1.09493e-05
1.11305e-05
1.13071e-05
1.14758e-05
1.16367e-05
1.17927e-05
1.19385e-05
1.20778e-05
1.2211e-05
1.2333e-05
1.24513e-05
1.25569e-05
1.26575e-05
1.27477e-05
1.28303e-05
1.29042e-05
1.29679e-05
1.30247e-05
1.30691e-05
1.31077e-05
1.31325e-05
1.31517e-05
1.31566e-05
1.31552e-05
1.31402e-05
1.3117e-05
1.30818e-05
1.30355e-05
1.298e-05
1.29094e-05
1.28333e-05
1.27372e-05
1.264e-05
1.25171e-05
1.23942e-05
1.22475e-05
1.20962e-05
1.19262e-05
1.17452e-05
1.15511e-05
1.13384e-05
1.11199e-05
1.08733e-05
1.06266e-05
1.03467e-05
1.00634e-05
9.75494e-06
9.4322e-06
9.09319e-06
8.72764e-06
8.3551e-06
7.94301e-06
7.53091e-06
7.06983e-06
6.60723e-06
6.3553e-06
6.09685e-06
5.8384e-06
5.57995e-06
5.29743e-06
5.01033e-06
4.72322e-06
4.42786e-06
4.11124e-06
3.79462e-06
3.47448e-06
3.12853e-06
2.78257e-06
2.42451e-06
2.05102e-06
1.67083e-06
1.27338e-06
8.6344e-07
6.54711e-07
4.39816e-07
2.21994e-07
0
)


113
(
0
6.11956e-08
1.20971e-07
1.79256e-07
2.36186e-07
2.91804e-07
3.46011e-07
3.98617e-07
4.50035e-07
5.00402e-07
5.48936e-07
5.9634e-07
6.42856e-07
6.87329e-07
7.30961e-07
7.73384e-07
8.14167e-07
8.54192e-07
8.92521e-07
9.29777e-07
9.66083e-07
1.00059e-06
1.03438e-06
1.06671e-06
1.09779e-06
1.12814e-06
1.1566e-06
1.18428e-06
1.21083e-06
1.23589e-06
1.26017e-06
1.28299e-06
1.30468e-06
1.32561e-06
1.34474e-06
1.36309e-06
1.38041e-06
1.39618e-06
1.4112e-06
1.4249e-06
1.43736e-06
1.44905e-06
1.45915e-06
1.4683e-06
1.47654e-06
1.48316e-06
1.48925e-06
1.49357e-06
1.49722e-06
1.49947e-06
1.50072e-06
1.50086e-06
1.49969e-06
1.49766e-06
1.49412e-06
1.48987e-06
1.48398e-06
1.47743e-06
1.46925e-06
1.46034e-06
1.44992e-06
1.43857e-06
1.42594e-06
1.4121e-06
1.3973e-06
1.38092e-06
1.36397e-06
1.34498e-06
1.3259e-06
1.30426e-06
1.28262e-06
1.25871e-06
1.23437e-06
1.20828e-06
1.18118e-06
1.15292e-06
1.12299e-06
1.09257e-06
1.05974e-06
1.02692e-06
9.9139e-07
9.55596e-07
9.17863e-07
8.79039e-07
8.39052e-07
7.97164e-07
7.54816e-07
7.09853e-07
6.6489e-07
6.16975e-07
5.68968e-07
5.43843e-07
5.18363e-07
4.92884e-07
4.67404e-07
4.40755e-07
4.13882e-07
3.8701e-07
3.5978e-07
3.3163e-07
3.03481e-07
2.75195e-07
2.45915e-07
2.16634e-07
1.86934e-07
1.567e-07
1.26255e-07
9.52674e-08
6.39148e-08
4.81297e-08
3.21746e-08
1.61417e-08
0
)

)


10
(

113
(
0
6.06231e-25
1.46069e-24
2.53258e-24
3.80795e-24
5.38773e-24
7.54616e-24
1.08133e-23
1.61249e-23
2.49986e-23
3.97324e-23
6.40538e-23
1.04967e-22
1.76307e-22
3.04374e-22
5.55645e-22
1.12799e-21
2.38267e-21
5.12209e-21
1.09845e-20
2.31671e-20
4.7666e-20
9.55243e-20
2.03485e-19
4.27909e-19
9.17952e-19
2.23049e-18
8.00056e-18
5.14285e-17
4.65752e-16
4.52528e-15
4.21021e-14
3.60846e-13
2.79338e-12
1.99095e-11
1.48296e-10
9.74195e-10
5.21091e-09
2.22861e-08
7.54132e-08
2.0287e-07
4.45173e-07
8.07523e-07
1.25726e-06
1.74516e-06
2.23058e-06
2.69366e-06
3.13871e-06
3.58739e-06
4.06981e-06
4.60729e-06
5.21674e-06
5.90912e-06
6.69171e-06
7.56917e-06
8.58137e-06
9.72546e-06
1.10115e-05
1.24539e-05
1.41644e-05
1.61953e-05
1.85175e-05
2.12078e-05
2.44298e-05
2.79138e-05
3.17033e-05
3.56423e-05
3.95462e-05
4.32688e-05
4.65932e-05
4.96866e-05
5.1948e-05
5.39425e-05
5.5241e-05
5.60947e-05
5.65109e-05
5.63708e-05
5.60153e-05
5.50725e-05
5.40305e-05
5.24983e-05
5.08641e-05
4.88907e-05
4.67738e-05
4.44289e-05
4.19123e-05
3.92577e-05
3.64199e-05
3.35211e-05
3.04548e-05
2.73613e-05
2.57837e-05
2.4206e-05
2.26274e-05
2.10473e-05
1.94671e-05
1.7897e-05
1.63478e-05
1.47986e-05
1.32812e-05
1.17908e-05
1.03035e-05
8.89568e-06
7.48786e-06
6.16414e-06
4.85592e-06
3.65826e-06
2.52309e-06
1.49264e-06
1.01989e-06
6.05664e-07
2.48812e-07
0
)


113
(
0
2.12371e-24
4.36282e-23
1.04067e-21
1.11235e-20
8.34909e-20
6.50202e-19
4.43739e-18
2.53024e-17
1.30745e-16
6.4569e-16
2.73653e-15
1.0609e-14
3.69149e-14
1.13165e-13
3.34625e-13
1.05644e-12
3.05399e-12
8.16646e-12
2.03546e-11
4.75916e-11
1.04929e-10
2.19804e-10
4.78202e-10
9.85783e-10
1.932e-09
3.61947e-09
6.51863e-09
1.13492e-08
1.9139e-08
3.12688e-08
4.95503e-08
7.62915e-08
1.14316e-07
1.66985e-07
2.3847e-07
3.32224e-07
4.51975e-07
6.01518e-07
7.83905e-07
1.00207e-06
1.25958e-06
1.55807e-06
1.89872e-06
2.28279e-06
2.71302e-06
3.19116e-06
3.72178e-06
4.31347e-06
4.97475e-06
5.71055e-06
6.53158e-06
7.44787e-06
8.46917e-06
9.60393e-06
1.09042e-05
1.23593e-05
1.39644e-05
1.57191e-05
1.76837e-05
1.983e-05
2.21123e-05
2.4545e-05
2.71377e-05
2.97922e-05
3.25112e-05
3.52264e-05
3.79046e-05
4.0479e-05
4.28706e-05
4.51564e-05
4.70268e-05
4.87431e-05
5.00506e-05
5.10451e-05
5.17316e-05
5.19524e-05
5.19931e-05
5.1463e-05
5.0832e-05
4.96687e-05
4.83903e-05
4.6729e-05
4.49053e-05
4.28231e-05
4.05514e-05
3.81273e-05
3.55063e-05
3.28198e-05
2.99476e-05
2.7041e-05
2.55485e-05
2.4056e-05
2.25563e-05
2.10437e-05
1.95311e-05
1.80227e-05
1.6523e-05
1.50233e-05
1.35463e-05
1.20885e-05
1.06333e-05
9.24173e-06
7.85016e-06
6.53073e-06
5.22461e-06
4.01551e-06
2.85421e-06
1.77576e-06
1.27137e-06
8.10221e-07
3.87844e-07
0
)


113
(
0
2.616e-12
9.17248e-12
2.4196e-11
5.27241e-11
1.04325e-10
1.93721e-10
3.42205e-10
5.84546e-10
9.64079e-10
1.54179e-09
2.38888e-09
3.60197e-09
5.31599e-09
7.69593e-09
1.09766e-08
1.55494e-08
2.16652e-08
2.9668e-08
4.0006e-08
5.32016e-08
6.98346e-08
9.0623e-08
1.17427e-07
1.5054e-07
1.91021e-07
2.40089e-07
2.98931e-07
3.69164e-07
4.52596e-07
5.50896e-07
6.66288e-07
8.00526e-07
9.57016e-07
1.1368e-06
1.34404e-06
1.58032e-06
1.84928e-06
2.15279e-06
2.4959e-06
2.87962e-06
3.30922e-06
3.79017e-06
4.31981e-06
4.90955e-06
5.55199e-06
6.25997e-06
7.03092e-06
7.87305e-06
8.7897e-06
9.7753e-06
1.08383e-05
1.19705e-05
1.31696e-05
1.44424e-05
1.57939e-05
1.72133e-05
1.8687e-05
2.02084e-05
2.17885e-05
2.34051e-05
2.50437e-05
2.6702e-05
2.83627e-05
3.00117e-05
3.16409e-05
3.32093e-05
3.47364e-05
3.6178e-05
3.75137e-05
3.87881e-05
3.98533e-05
4.08429e-05
4.16321e-05
4.22629e-05
4.27377e-05
4.29558e-05
4.30746e-05
4.28487e-05
4.25577e-05
4.1896e-05
4.11426e-05
4.00835e-05
3.88818e-05
3.74533e-05
3.58368e-05
3.40689e-05
3.20736e-05
3.00024e-05
2.77056e-05
2.53536e-05
2.4114e-05
2.28744e-05
2.16138e-05
2.03154e-05
1.90171e-05
1.77059e-05
1.63684e-05
1.50309e-05
1.36854e-05
1.23331e-05
1.09821e-05
9.66648e-06
8.35082e-06
7.06619e-06
5.78734e-06
4.55642e-06
3.35595e-06
2.20735e-06
1.65426e-06
1.12363e-06
5.92064e-07
0
)


113
(
0
1.51742e-09
3.54546e-09
6.46416e-09
1.0394e-08
1.55795e-08
2.23146e-08
3.0927e-08
4.17754e-08
5.52471e-08
7.17592e-08
9.17621e-08
1.15771e-07
1.44407e-07
1.78298e-07
2.18126e-07
2.65639e-07
3.20478e-07
3.8331e-07
4.55529e-07
5.38092e-07
6.3118e-07
7.36221e-07
8.58249e-07
9.94388e-07
1.14594e-06
1.3152e-06
1.50351e-06
1.71191e-06
1.94187e-06
2.19496e-06
2.4724e-06
2.77551e-06
3.10582e-06
3.46764e-06
3.85454e-06
4.27782e-06
4.73555e-06
5.21868e-06
5.74013e-06
6.29927e-06
6.8919e-06
7.52159e-06
8.18994e-06
8.88995e-06
9.63332e-06
1.04054e-05
1.1212e-05
1.20555e-05
1.29343e-05
1.38391e-05
1.47807e-05
1.57454e-05
1.67253e-05
1.7726e-05
1.87483e-05
1.9784e-05
2.08274e-05
2.18747e-05
2.29203e-05
2.39558e-05
2.49814e-05
2.59942e-05
2.69711e-05
2.79224e-05
2.88402e-05
2.96973e-05
3.0519e-05
3.12723e-05
3.19534e-05
3.25924e-05
3.31012e-05
3.35652e-05
3.39112e-05
3.41681e-05
3.43371e-05
3.43501e-05
3.43028e-05
3.4067e-05
3.3794e-05
3.3297e-05
3.27459e-05
3.20142e-05
3.11821e-05
3.01902e-05
2.9052e-05
2.77961e-05
2.63537e-05
2.48493e-05
2.31777e-05
2.14512e-05
2.0524e-05
1.95968e-05
1.86429e-05
1.76406e-05
1.66384e-05
1.56173e-05
1.45571e-05
1.34969e-05
1.24152e-05
1.13151e-05
1.02142e-05
9.09342e-06
7.9726e-06
6.85083e-06
5.729e-06
4.62035e-06
3.51805e-06
2.41842e-06
1.86497e-06
1.29103e-06
6.82902e-07
0
)


113
(
0
2.48891e-08
5.10857e-08
8.15346e-08
1.16915e-07
1.58048e-07
2.05648e-07
2.60306e-07
3.22539e-07
3.92828e-07
4.71641e-07
5.59457e-07
6.56752e-07
7.64041e-07
8.81828e-07
1.01151e-06
1.1545e-06
1.30997e-06
1.47845e-06
1.6605e-06
1.85672e-06
2.06766e-06
2.29398e-06
2.53873e-06
2.80226e-06
3.08501e-06
3.38869e-06
3.7083e-06
4.0431e-06
4.39648e-06
4.76616e-06
5.15319e-06
5.56579e-06
5.99021e-06
6.44271e-06
6.90444e-06
7.38785e-06
7.89376e-06
8.4104e-06
8.95409e-06
9.50421e-06
1.00854e-05
1.06623e-05
1.12699e-05
1.18847e-05
1.2513e-05
1.31543e-05
1.38026e-05
1.4465e-05
1.51338e-05
1.58032e-05
1.6477e-05
1.71557e-05
1.78368e-05
1.85158e-05
1.91814e-05
1.98435e-05
2.04964e-05
2.11374e-05
2.17608e-05
2.23663e-05
2.29535e-05
2.35162e-05
2.40413e-05
2.45446e-05
2.5021e-05
2.54466e-05
2.58454e-05
2.61945e-05
2.64848e-05
2.67411e-05
2.6912e-05
2.70478e-05
2.709e-05
2.70696e-05
2.69877e-05
2.6826e-05
2.66334e-05
2.63348e-05
2.60147e-05
2.55618e-05
2.50741e-05
2.44708e-05
2.38078e-05
2.30499e-05
2.22058e-05
2.12922e-05
2.02636e-05
1.91968e-05
1.79844e-05
1.67306e-05
1.60556e-05
1.53805e-05
1.46841e-05
1.39487e-05
1.32133e-05
1.24616e-05
1.16763e-05
1.08909e-05
1.00849e-05
9.26151e-06
8.43706e-06
7.58651e-06
6.73595e-06
5.86685e-06
4.99432e-06
4.09606e-06
3.17729e-06
2.21834e-06
1.7193e-06
1.18636e-06
6.19801e-07
0
)


113
(
0
1.06671e-07
2.09357e-07
3.15049e-07
4.26475e-07
5.45486e-07
6.73358e-07
8.1087e-07
9.58446e-07
1.11629e-06
1.28451e-06
1.46314e-06
1.65221e-06
1.85175e-06
2.06181e-06
2.28317e-06
2.51653e-06
2.76056e-06
3.01527e-06
3.28068e-06
3.5568e-06
3.84362e-06
4.14118e-06
4.451e-06
4.77125e-06
5.10181e-06
5.44258e-06
5.79338e-06
6.15402e-06
6.5243e-06
6.90394e-06
7.29264e-06
7.6901e-06
8.09653e-06
8.52244e-06
8.94432e-06
9.37315e-06
9.80838e-06
1.02495e-05
1.06958e-05
1.11469e-05
1.16021e-05
1.20608e-05
1.25364e-05
1.31051e-05
1.36279e-05
1.413e-05
1.46302e-05
1.51034e-05
1.55732e-05
1.6026e-05
1.64664e-05
1.68891e-05
1.72903e-05
1.76706e-05
1.80198e-05
1.8336e-05
1.85391e-05
1.86555e-05
1.89774e-05
1.9279e-05
1.95634e-05
1.98272e-05
2.00602e-05
2.02739e-05
2.04632e-05
2.06245e-05
2.07637e-05
2.08543e-05
2.09109e-05
2.09477e-05
2.09271e-05
2.08878e-05
2.07995e-05
2.06753e-05
2.05156e-05
2.03001e-05
2.00631e-05
1.97508e-05
1.94244e-05
1.90169e-05
1.85882e-05
1.80891e-05
1.75535e-05
1.696e-05
1.63138e-05
1.56251e-05
1.4866e-05
1.40833e-05
1.32113e-05
1.23138e-05
1.18354e-05
1.1357e-05
1.0865e-05
1.03486e-05
9.83215e-06
9.3046e-06
8.75409e-06
8.20358e-06
7.63603e-06
7.05396e-06
6.47068e-06
5.85658e-06
5.24248e-06
4.59737e-06
3.94652e-06
3.25204e-06
2.53073e-06
1.76362e-06
1.36106e-06
9.32017e-07
4.81088e-07
0
)


113
(
0
2.22669e-07
4.31936e-07
6.35216e-07
8.37253e-07
1.04065e-06
1.2473e-06
1.45851e-06
1.6751e-06
1.89753e-06
2.12604e-06
2.36072e-06
2.60156e-06
2.84851e-06
3.10147e-06
3.36073e-06
3.62643e-06
3.89763e-06
4.17415e-06
4.4558e-06
4.74238e-06
5.0337e-06
5.32955e-06
5.60176e-06
5.89751e-06
6.19948e-06
6.5041e-06
6.81104e-06
7.11995e-06
7.43049e-06
7.74229e-06
8.05495e-06
8.36807e-06
8.68126e-06
8.99407e-06
9.30603e-06
9.61671e-06
9.92566e-06
1.02324e-05
1.05365e-05
1.08374e-05
1.11345e-05
1.14274e-05
1.17155e-05
1.19984e-05
1.22755e-05
1.25463e-05
1.28103e-05
1.30664e-05
1.3314e-05
1.35528e-05
1.37824e-05
1.40022e-05
1.4212e-05
1.44113e-05
1.45965e-05
1.4769e-05
1.49293e-05
1.50777e-05
1.52089e-05
1.5324e-05
1.54259e-05
1.55122e-05
1.55759e-05
1.5626e-05
1.56588e-05
1.56661e-05
1.566e-05
1.56297e-05
1.55768e-05
1.55109e-05
1.5408e-05
1.52934e-05
1.5148e-05
1.49806e-05
1.47914e-05
1.45688e-05
1.43332e-05
1.40931e-05
1.38447e-05
1.35002e-05
1.31442e-05
1.27495e-05
1.23351e-05
1.18892e-05
1.14149e-05
1.09176e-05
1.03822e-05
9.83396e-06
9.23603e-06
8.62307e-06
8.29909e-06
7.97511e-06
7.64226e-06
7.29336e-06
6.94446e-06
6.58714e-06
6.21239e-06
5.83764e-06
5.44784e-06
5.0452e-06
4.64138e-06
4.20769e-06
3.77401e-06
3.31067e-06
2.84188e-06
2.33547e-06
1.80894e-06
1.25013e-06
9.58418e-07
6.51434e-07
3.3302e-07
0
)


113
(
0
2.90613e-07
5.64662e-07
8.25993e-07
1.07874e-06
1.32479e-06
1.5657e-06
1.80279e-06
2.03709e-06
2.26939e-06
2.50026e-06
2.7301e-06
2.95919e-06
3.18774e-06
3.41586e-06
3.64359e-06
3.87094e-06
4.09791e-06
4.32442e-06
4.5504e-06
4.77572e-06
5.00025e-06
5.22385e-06
5.44615e-06
5.66712e-06
5.88658e-06
6.10432e-06
6.32013e-06
6.53382e-06
6.74514e-06
6.95387e-06
7.15979e-06
7.36264e-06
7.56218e-06
7.75818e-06
7.95029e-06
8.13835e-06
8.32215e-06
8.50145e-06
8.67601e-06
8.84559e-06
9.00977e-06
9.16837e-06
9.32122e-06
9.4681e-06
9.60877e-06
9.74301e-06
9.87061e-06
9.99081e-06
1.01035e-05
1.02086e-05
1.03061e-05
1.03957e-05
1.04774e-05
1.05512e-05
1.06145e-05
1.06687e-05
1.07144e-05
1.07518e-05
1.07776e-05
1.07929e-05
1.07996e-05
1.07964e-05
1.07791e-05
1.07536e-05
1.07176e-05
1.06665e-05
1.06077e-05
1.05349e-05
1.04494e-05
1.03566e-05
1.02435e-05
1.0124e-05
9.98804e-06
9.84038e-06
9.68124e-06
9.5047e-06
9.32143e-06
9.11538e-06
8.90508e-06
8.67083e-06
8.4304e-06
8.1694e-06
7.89777e-06
7.60922e-06
7.30491e-06
6.9879e-06
6.64876e-06
6.30224e-06
5.92509e-06
5.53803e-06
5.33294e-06
5.12785e-06
4.9165e-06
4.69384e-06
4.47118e-06
4.24232e-06
4.00065e-06
3.75898e-06
3.50622e-06
3.24399e-06
2.98093e-06
2.69675e-06
2.41257e-06
2.10897e-06
1.80182e-06
1.47229e-06
1.13194e-06
7.74849e-07
5.90284e-07
3.98772e-07
2.02371e-07
0
)


113
(
0
2.36272e-07
4.62043e-07
6.77997e-07
8.85967e-07
1.08646e-06
1.27996e-06
1.467e-06
1.64813e-06
1.82384e-06
1.99454e-06
2.16058e-06
2.32227e-06
2.47983e-06
2.63348e-06
2.78313e-06
2.92874e-06
3.0709e-06
3.20969e-06
3.3452e-06
3.47748e-06
3.60656e-06
3.73248e-06
3.85477e-06
3.97399e-06
4.09012e-06
4.20316e-06
4.31309e-06
4.4199e-06
4.52357e-06
4.62407e-06
4.72136e-06
4.81542e-06
4.90621e-06
4.99369e-06
5.07773e-06
5.15838e-06
5.23563e-06
5.30942e-06
5.37972e-06
5.44647e-06
5.50952e-06
5.56887e-06
5.62452e-06
5.67643e-06
5.72455e-06
5.76886e-06
5.8093e-06
5.84555e-06
5.87761e-06
5.90562e-06
5.92952e-06
5.94933e-06
5.96506e-06
5.97677e-06
5.98325e-06
5.98527e-06
5.9832e-06
5.97714e-06
5.96562e-06
5.94918e-06
5.92881e-06
5.90387e-06
5.87261e-06
5.8376e-06
5.79791e-06
5.75154e-06
5.70175e-06
5.64578e-06
5.58425e-06
5.5195e-06
5.44582e-06
5.36934e-06
5.28556e-06
5.19658e-06
5.10249e-06
5.00054e-06
4.89555e-06
4.78007e-06
4.66261e-06
4.53385e-06
4.40209e-06
4.26035e-06
4.11329e-06
3.95776e-06
3.79411e-06
3.62392e-06
3.44202e-06
3.25623e-06
3.05403e-06
2.84652e-06
2.73658e-06
2.62664e-06
2.51342e-06
2.39428e-06
2.27513e-06
2.15288e-06
2.0242e-06
1.89552e-06
1.76161e-06
1.62324e-06
1.48451e-06
1.33658e-06
1.18864e-06
1.03295e-06
8.75839e-07
7.10534e-07
5.41576e-07
3.67116e-07
2.77996e-07
1.86809e-07
9.42287e-08
0
)


113
(
0
2.69348e-08
5.32286e-08
7.88557e-08
1.03887e-07
1.28311e-07
1.52118e-07
1.75309e-07
1.9789e-07
2.19873e-07
2.41268e-07
2.62087e-07
2.82338e-07
3.02028e-07
3.21164e-07
3.39712e-07
3.57645e-07
3.75038e-07
3.91894e-07
4.08217e-07
4.24007e-07
4.39267e-07
4.53998e-07
4.6812e-07
4.81723e-07
4.94809e-07
5.07377e-07
5.19429e-07
5.30966e-07
5.41988e-07
5.52497e-07
5.62494e-07
5.7198e-07
5.80955e-07
5.89421e-07
5.97367e-07
6.04807e-07
6.11746e-07
6.18186e-07
6.24128e-07
6.29572e-07
6.34505e-07
6.38935e-07
6.42868e-07
6.46309e-07
6.49257e-07
6.51714e-07
6.53684e-07
6.5513e-07
6.56062e-07
6.56503e-07
6.5645e-07
6.55914e-07
6.549e-07
6.53421e-07
6.51343e-07
6.48763e-07
6.45725e-07
6.42245e-07
6.38166e-07
6.33555e-07
6.28522e-07
6.23002e-07
6.16816e-07
6.1024e-07
6.03178e-07
5.95434e-07
5.87343e-07
5.7863e-07
5.69366e-07
5.59782e-07
5.4933e-07
5.38609e-07
5.27192e-07
5.1529e-07
5.0291e-07
4.89815e-07
4.76444e-07
4.62146e-07
4.47675e-07
4.32241e-07
4.16561e-07
4.00064e-07
3.83152e-07
3.65579e-07
3.47407e-07
3.28752e-07
3.09288e-07
2.89554e-07
2.68766e-07
2.47662e-07
2.36744e-07
2.25826e-07
2.14729e-07
2.03312e-07
1.91894e-07
1.80323e-07
1.68433e-07
1.56544e-07
1.44419e-07
1.32094e-07
1.19754e-07
1.07037e-07
9.43202e-08
8.13123e-08
6.82516e-08
5.49073e-08
4.14451e-08
2.78089e-08
2.09331e-08
1.3997e-08
7.02131e-09
0
)

)


10
(

113
(
0
5.25831e-22
1.28692e-21
2.15737e-21
3.06906e-21
3.99301e-21
4.942e-21
5.97623e-21
7.23946e-21
8.91139e-21
1.13184e-20
1.47833e-20
1.9925e-20
2.78615e-20
4.04769e-20
6.44e-20
1.0805e-19
1.84385e-19
3.09333e-19
5.82667e-19
1.19846e-18
2.745e-18
7.32e-18
2.11923e-17
5.76538e-17
2.68075e-16
1.40042e-15
7.55167e-15
3.9075e-14
1.6975e-13
7.5725e-13
4.95927e-12
2.86933e-11
1.4605e-10
6.73091e-10
2.90455e-09
1.08191e-08
3.48273e-08
9.81e-08
2.61645e-07
5.84e-07
1.1544e-06
1.92727e-06
2.954e-06
4.11091e-06
5.33818e-06
6.62909e-06
7.92333e-06
9.19167e-06
1.05e-05
1.18846e-05
1.34083e-05
1.50462e-05
1.67571e-05
1.85429e-05
2.05571e-05
2.27143e-05
2.5e-05
2.73333e-05
2.95938e-05
3.17812e-05
3.38562e-05
3.58438e-05
3.76562e-05
3.91059e-05
4.04e-05
4.11778e-05
4.18667e-05
4.22e-05
4.23778e-05
4.23222e-05
4.20158e-05
4.15421e-05
4.08474e-05
4.00579e-05
3.914e-05
3.819e-05
3.704e-05
3.584e-05
3.448e-05
3.308e-05
3.16e-05
3.01e-05
2.84526e-05
2.67684e-05
2.5115e-05
2.3465e-05
2.155e-05
1.96167e-05
1.77833e-05
1.59353e-05
1.49941e-05
1.40529e-05
1.31125e-05
1.2175e-05
1.12375e-05
1.03e-05
9.45e-06
8.6e-06
7.75e-06
6.84167e-06
5.93333e-06
5.09e-06
4.29e-06
3.51444e-06
2.77556e-06
2.06857e-06
1.41317e-06
8.79e-07
6.29e-07
3.63e-07
1.525e-07
0
)


113
(
0
6.34142e-22
1.78605e-21
8.0192e-21
5.73021e-20
4.07048e-19
2.98967e-18
1.94354e-17
1.13426e-16
5.98245e-16
2.819e-15
1.15053e-14
3.93495e-14
1.20147e-13
3.91675e-13
1.26554e-12
3.78795e-12
1.0394e-11
2.38107e-11
5.68768e-11
1.43936e-10
3.23841e-10
6.88694e-10
1.3815e-09
2.62381e-09
5.16734e-09
9.68928e-09
1.73253e-08
2.96581e-08
4.8783e-08
7.92932e-08
1.26111e-07
1.95624e-07
2.92708e-07
4.23931e-07
6.01042e-07
8.3175e-07
1.12593e-06
1.49221e-06
1.94877e-06
2.49421e-06
3.1299e-06
3.86739e-06
4.69921e-06
5.63531e-06
6.66627e-06
7.7918e-06
9.01137e-06
1.03144e-05
1.16994e-05
1.31861e-05
1.47388e-05
1.63613e-05
1.804e-05
1.97775e-05
2.15573e-05
2.33556e-05
2.5166e-05
2.69558e-05
2.87076e-05
3.04215e-05
3.20106e-05
3.35268e-05
3.49051e-05
3.61044e-05
3.7227e-05
3.80371e-05
3.87781e-05
3.92431e-05
3.95695e-05
3.96879e-05
3.96041e-05
3.93854e-05
3.89466e-05
3.84134e-05
3.7655e-05
3.68404e-05
3.58302e-05
3.47712e-05
3.35498e-05
3.22879e-05
3.08917e-05
2.9462e-05
2.79231e-05
2.63569e-05
2.46931e-05
2.30184e-05
2.12714e-05
1.95116e-05
1.77101e-05
1.59038e-05
1.49952e-05
1.40865e-05
1.31793e-05
1.22778e-05
1.13763e-05
1.04748e-05
9.5953e-06
8.71578e-06
7.83626e-06
6.99065e-06
6.14504e-06
5.32726e-06
4.52802e-06
3.75197e-06
3.01072e-06
2.30733e-06
1.64041e-06