/*--------------------------------*- C++ -*----------------------------------*\
| =========                 |                                                 |
| \\      /  F ield         | OpenFOAM: The Open Source CFD Toolbox           |
|  \\    /   O peration     | Version:  2.3.0                                 |
|   \\  /    A nd           | Web:      www.OpenFOAM.org                      |
|    \\/     M anipulation  |                                                 |
\*---------------------------------------------------------------------------*/
FoamFile
{
    version     2.0;
    format      ascii;
    class       dictionary;
    location    "constant";
    object      CH;
}
// * * * * * * * * * * * * * * * * * * * * * * * * * * * * * * * * * * * * * //

CH_table
13
(

10
(

113
(
0
2.935e-40
3.7912e-39
2.1567e-38
5.45228e-38
1.55221e-37
6.30698e-37
1.80492e-36
1.29573e-34
8.78199e-34
8.32389e-33
1.12974e-31
2.94e-31
4.80092e-30
6.48957e-29
2.04983e-28
4.04012e-27
3.24545e-26
1.76363e-25
2.08957e-24
5.57178e-24
6.24883e-23
3.29037e-22
1.17533e-21
6.66321e-21
1.57602e-20
7.37727e-20
2.77857e-19
6.92143e-19
1.2058e-17
2.73467e-16
1.46522e-15
5.06801e-14
1.96308e-13
3.56172e-12
3.93684e-11
1.18178e-10
8.93924e-10
2.74962e-09
7.19266e-09
1.41647e-08
2.16354e-08
2.44304e-08
2.38455e-08
2.00132e-08
1.58555e-08
1.18081e-08
9.15447e-09
6.86395e-09
5.34503e-09
4.11524e-09
3.2115e-09
2.52187e-09
1.975e-09
1.57909e-09
1.25421e-09
1.02749e-09
8.40856e-10
7.09667e-10
6.03386e-10
5.2521e-10
4.64257e-10
4.15075e-10
3.76757e-10
3.41565e-10
3.11472e-10
2.81037e-10
2.49385e-10
2.17618e-10
1.83073e-10
1.48527e-10
1.14873e-10
8.13891e-11
5.55203e-11
3.41239e-11
1.82969e-11
1.04844e-11
3.73605e-12
2.18339e-12
6.30739e-13
3.13009e-13
1.17414e-13
3.47579e-14
1.56296e-14
3.16728e-15
1.58118e-15
2.17637e-16
1.1522e-16
1.28025e-17
5.29678e-18
7.2644e-19
1.43781e-19
9.87551e-20
5.37296e-20
8.70408e-21
1.14847e-21
7.29991e-22
3.11508e-22
9.30365e-24
6.10242e-24
2.90119e-24
8.0375e-26
4.93332e-26
1.82914e-26
7.25726e-28
3.11467e-28
1.09603e-29
2.96158e-30
1.00719e-31
2.43171e-33
4.70314e-33
1.82033e-33
0
)


113
(
0
1.5458e-25
6.07184e-24
1.40445e-22
1.3598e-21
1.16903e-20
6.22332e-20
5.25275e-19
3.30663e-18
1.10164e-17
5.63981e-17
2.79614e-16
6.42558e-16
3.01906e-15
1.00582e-14
2.38068e-14
8.56796e-14
1.958e-13
4.8274e-13
1.24701e-12
2.43457e-12
5.99182e-12
1.16837e-11
2.27015e-11
4.46748e-11
7.35693e-11
1.39639e-10
2.33816e-10
3.68442e-10
5.93262e-10
8.76297e-10
1.29351e-09
1.8326e-09
2.45412e-09
3.2967e-09
4.21724e-09
5.24115e-09
6.34301e-09
7.44336e-09
8.50237e-09
9.41082e-09
1.02098e-08
1.0702e-08
1.09673e-08
1.10146e-08
1.0686e-08
1.02499e-08
9.52315e-09
8.72944e-09
7.79344e-09
6.85406e-09
5.91086e-09
5.03694e-09
4.2092e-09
3.50581e-09
2.86093e-09
2.3513e-09
1.89691e-09
1.54906e-09
1.24909e-09
1.02055e-09
8.35798e-10
6.88506e-10
5.75794e-10
4.78842e-10
4.07603e-10
3.41486e-10
2.93524e-10
2.46081e-10
2.11107e-10
1.76133e-10
1.48112e-10
1.21414e-10
9.89267e-11
7.89113e-11
6.14073e-11
4.75174e-11
3.45387e-11
2.60087e-11
1.74787e-11
1.26245e-11
8.13387e-12
5.26934e-12
3.31949e-12
1.84669e-12
1.1522e-12
5.31292e-13
3.2728e-13
1.23269e-13
7.2267e-14
2.59977e-14
1.7009e-14
1.24874e-14
7.96586e-15
3.4443e-15
2.16255e-15
1.4979e-15
8.33258e-16
3.26311e-16
2.2488e-16
1.23449e-16
3.2838e-17
2.15735e-17
1.03089e-17
3.27861e-18
1.63731e-18
3.86018e-19
1.3758e-19
2.8052e-20
1.01261e-20
4.36521e-21
1.09032e-21
0
)


113
(
0
5.17847e-14
1.75266e-13
4.42903e-13
9.37276e-13
1.77008e-12
3.14094e-12
5.84737e-12
9.6561e-12
1.45608e-11
2.25315e-11
3.3791e-11
4.76346e-11
7.01687e-11
9.804e-11
1.33592e-10
1.78189e-10
2.30491e-10
3.09366e-10
3.93568e-10
4.82493e-10
6.14668e-10
7.61984e-10
9.38716e-10
1.12515e-09
1.31812e-09
1.5638e-09
1.82276e-09
2.10082e-09
2.40543e-09
2.71946e-09
3.04393e-09
3.38321e-09
3.73149e-09
4.05731e-09
4.37994e-09
4.69834e-09
4.98638e-09
5.25834e-09
5.50136e-09
5.70312e-09
5.87834e-09
5.99483e-09
6.07561e-09
6.12206e-09
6.09681e-09
6.05129e-09
5.95224e-09
5.8251e-09
5.63825e-09
5.42686e-09
5.18779e-09
4.91872e-09
4.62967e-09
4.32567e-09
4.01465e-09
3.72333e-09
3.44006e-09
3.13069e-09
2.80959e-09
2.53038e-09
2.27684e-09
2.03031e-09
1.79027e-09
1.56696e-09
1.37095e-09
1.18364e-09
1.02718e-09
8.72201e-10
7.52809e-10
6.33416e-10
5.38447e-10
4.48129e-10
3.75306e-10
3.12757e-10
2.57411e-10
2.12427e-10
1.70083e-10
1.40623e-10
1.11163e-10
9.0763e-11
7.12594e-11
5.6495e-11
4.43963e-11
3.40468e-11
2.65514e-11
1.95138e-11
1.50709e-11
1.0628e-11
8.0016e-12
5.43138e-12
4.59058e-12
3.89009e-12
3.1896e-12
2.48911e-12
2.07627e-12
1.71822e-12
1.36017e-12
1.04666e-12
8.47649e-13
6.48641e-13
4.61368e-13
3.60148e-13
2.58928e-13
1.78584e-13
1.24811e-13
7.76728e-14
4.75968e-14
2.53163e-14
1.64134e-14
1.01494e-14
4.72514e-15
0
)


113
(
0
7.46011e-12
1.67899e-11
2.93549e-11
4.54278e-11
6.53217e-11
8.97991e-11
1.20245e-10
1.55646e-10
1.95603e-10
2.44369e-10
2.99144e-10
3.58642e-10
4.33357e-10
5.15287e-10
6.07598e-10
7.04035e-10
8.04299e-10
9.18211e-10
1.04067e-09
1.1707e-09
1.30721e-09
1.44662e-09
1.59225e-09
1.72336e-09
1.84728e-09
2.01835e-09
2.18049e-09
2.32975e-09
2.49171e-09
2.6543e-09
2.80734e-09
2.95845e-09
3.10791e-09
3.23701e-09
3.36675e-09
3.49733e-09
3.60014e-09
3.69474e-09
3.78043e-09
3.85502e-09
3.92176e-09
3.96755e-09
4.00256e-09
4.02723e-09
4.02983e-09
4.02615e-09
4.00561e-09
3.97419e-09
3.91967e-09
3.85627e-09
3.78285e-09
3.6847e-09
3.57007e-09
3.47935e-09
3.39988e-09
3.27134e-09
3.12277e-09
2.97345e-09
2.82379e-09
2.68611e-09
2.55578e-09
2.41871e-09
2.27541e-09
2.13305e-09
1.99221e-09
1.85091e-09
1.70792e-09
1.56633e-09
1.45814e-09
1.34994e-09
1.22589e-09
1.09881e-09
9.86004e-10
8.81579e-10
7.89245e-10
7.14308e-10
6.40173e-10
5.69954e-10
4.99734e-10
4.34413e-10
3.69576e-10
3.15555e-10
2.67618e-10
2.24801e-10
1.90339e-10
1.57462e-10
1.33564e-10
1.09666e-10
9.04335e-11
7.13453e-11
6.38819e-11
5.70756e-11
5.02692e-11
4.34628e-11
3.83465e-11
3.35522e-11
2.87578e-11
2.43638e-11
2.0999e-11
1.76342e-11
1.43882e-11
1.20132e-11
9.63825e-12
7.55687e-12
5.84917e-12
4.26202e-12
2.98489e-12
1.87184e-12
1.36207e-12
9.03878e-13
4.54733e-13
0
)


113
(
0
3.3992e-11
6.75702e-11
1.04061e-10
1.44212e-10
1.88219e-10
2.36475e-10
2.89496e-10
3.45963e-10
4.05447e-10
4.69991e-10
5.37469e-10
6.07252e-10
6.81922e-10
7.58385e-10
8.3743e-10
9.19466e-10
1.00276e-09
1.08852e-09
1.17541e-09
1.26329e-09
1.35222e-09
1.44133e-09
1.53058e-09
1.62331e-09
1.71826e-09
1.82614e-09
1.92439e-09
2.0088e-09
2.10639e-09
2.19556e-09
2.24066e-09
2.30193e-09
2.3741e-09
2.47351e-09
2.54679e-09
2.58543e-09
2.63487e-09
2.68258e-09
2.72046e-09
2.75518e-09
2.78703e-09
2.80836e-09
2.82615e-09
2.84055e-09
2.84647e-09
2.84927e-09
2.83991e-09
2.82902e-09
2.81487e-09
2.79128e-09
2.75704e-09
2.73247e-09
2.71437e-09
2.66322e-09
2.59653e-09
2.54343e-09
2.49588e-09
2.43409e-09
2.36589e-09
2.30059e-09
2.23707e-09
2.17646e-09
2.11854e-09
2.03831e-09
1.9217e-09
1.81235e-09
1.72878e-09
1.64687e-09
1.60481e-09
1.56275e-09
1.43565e-09
1.29235e-09
1.19416e-09
1.12246e-09
1.06037e-09
1.0121e-09
9.60063e-10
8.8961e-10
8.19156e-10
7.53653e-10
6.88639e-10
6.27514e-10
5.68577e-10
5.12085e-10
4.59582e-10
4.08057e-10
3.62074e-10
3.16092e-10
2.76254e-10
2.36607e-10
2.19028e-10
2.02159e-10
1.85289e-10
1.6842e-10
1.53776e-10
1.39557e-10
1.25337e-10
1.11761e-10
9.98388e-11
8.79169e-11
7.62233e-11
6.62042e-11
5.61851e-11
4.6799e-11
3.82186e-11
2.98939e-11
2.22265e-11
1.48194e-11
1.11831e-11
7.54829e-12
3.8507e-12
0
)


113
(
0
5.47186e-11
1.04939e-10
1.53923e-10
2.03245e-10
2.53495e-10
3.05078e-10
3.58294e-10
4.12662e-10
4.68017e-10
5.24869e-10
5.82431e-10
6.40553e-10
6.99542e-10
7.58709e-10
8.18133e-10
8.77556e-10
9.36905e-10
9.95894e-10
1.05443e-09
1.11257e-09
1.16958e-09
1.22603e-09
1.28128e-09
1.33526e-09
1.38847e-09
1.43941e-09
1.48927e-09
1.53757e-09
1.58354e-09
1.62826e-09
1.67047e-09
1.71061e-09
1.74897e-09
1.76624e-09
1.78936e-09
1.82023e-09
1.84781e-09
1.87372e-09
1.89671e-09
1.91689e-09
1.9353e-09
1.95005e-09
1.99371e-09
2.06517e-09
2.08345e-09
2.09119e-09
2.09557e-09
2.09688e-09
2.09165e-09
2.07702e-09
2.05178e-09
2.03138e-09
2.01419e-09
2.02013e-09
2.03694e-09
1.98068e-09
1.89457e-09
1.84631e-09
1.81505e-09
1.78108e-09
1.74546e-09
1.70778e-09
1.6682e-09
1.62729e-09
1.58421e-09
1.54089e-09
1.49673e-09
1.45238e-09
1.40352e-09
1.35467e-09
1.30436e-09
1.25379e-09
1.20249e-09
1.15076e-09
1.09881e-09
1.04654e-09
9.94271e-10
9.42037e-10
8.89803e-10
8.38147e-10
7.86548e-10
7.35723e-10
6.85333e-10
6.35606e-10
5.86959e-10
5.38645e-10
4.92218e-10
4.45792e-10
4.01903e-10
3.58092e-10
3.37281e-10
3.16814e-10
2.96348e-10
2.75882e-10
2.56651e-10
2.37654e-10
2.18657e-10
2.00042e-10
1.82408e-10
1.64773e-10
1.47269e-10
1.30718e-10
1.14167e-10
9.78931e-11
8.19719e-11
6.60748e-11
5.02392e-11
3.41497e-11
2.60148e-11
1.7596e-11
8.97312e-12
0
)


113
(
0
5.62067e-11
1.07362e-10
1.55236e-10
2.01236e-10
2.46013e-10
2.89916e-10
3.33217e-10
3.76199e-10
4.18927e-10
4.61286e-10
5.03407e-10
5.4534e-10
5.86747e-10
6.27881e-10
6.68622e-10
7.08701e-10
7.48447e-10
7.87368e-10
8.25682e-10
8.63457e-10
9.00071e-10
9.37539e-10
9.778e-10
1.01338e-09
1.04629e-09
1.07741e-09
1.10772e-09
1.13689e-09
1.16444e-09
1.19114e-09
1.21616e-09
1.23986e-09
1.26265e-09
1.28324e-09
1.30284e-09
1.32113e-09
1.33744e-09
1.35274e-09
1.36632e-09
1.37823e-09
1.38911e-09
1.39784e-09
1.40528e-09
1.41148e-09
1.41547e-09
1.41874e-09
1.4196e-09
1.41956e-09
1.41764e-09
1.41439e-09
1.40965e-09
1.40323e-09
1.39568e-09
1.38621e-09
1.37584e-09
1.36348e-09
1.3503e-09
1.3352e-09
1.31924e-09
1.30161e-09
1.28294e-09
1.26292e-09
1.24164e-09
1.21943e-09
1.19566e-09
1.17139e-09
1.1453e-09
1.11913e-09
1.09089e-09
1.06265e-09
1.03278e-09
1.00259e-09
9.71315e-10
9.39402e-10
9.06878e-10
8.73478e-10
8.40369e-10
8.08687e-10
7.77004e-10
7.41156e-10
7.04897e-10
6.68323e-10
6.31573e-10
5.94743e-10
5.57784e-10
5.20834e-10
4.83935e-10
4.47036e-10
4.10407e-10
3.73787e-10
3.55624e-10
3.37508e-10
3.19391e-10
3.01275e-10
2.83293e-10
2.65337e-10
2.4738e-10
2.29428e-10
2.11488e-10
1.93547e-10
1.75578e-10
1.57398e-10
1.39219e-10
1.20794e-10
1.02056e-10
8.3082e-11
6.35018e-11
4.32815e-11
3.29709e-11
2.22518e-11
1.13032e-11
0
)


113
(
0
4.40914e-11
8.48708e-11
1.22888e-10
1.58875e-10
1.93201e-10
2.2601e-10
2.57398e-10
2.87873e-10
3.17578e-10
3.46102e-10
3.73976e-10
4.01338e-10
4.27612e-10
4.53456e-10
4.78683e-10
5.03087e-10
5.27109e-10
5.50274e-10
5.72887e-10
5.95012e-10
6.16182e-10
6.36965e-10
6.56948e-10
6.76225e-10
6.95083e-10
7.12834e-10
7.30113e-10
7.46711e-10
7.62369e-10
7.77542e-10
7.9177e-10
8.05255e-10
8.18239e-10
8.30012e-10
8.41248e-10
8.51771e-10
8.61222e-10
8.7014e-10
8.78128e-10
8.85234e-10
8.91787e-10
8.97197e-10
9.01922e-10
9.05989e-10
9.08883e-10
9.11396e-10
9.12625e-10
9.13378e-10
9.13119e-10
9.12151e-10
9.10383e-10
9.077e-10
9.04406e-10
9.00061e-10
8.95221e-10
8.89272e-10
8.82869e-10
8.75383e-10
8.6741e-10
8.58466e-10
8.48928e-10
8.38585e-10
8.27499e-10
8.15836e-10
8.03232e-10
7.90303e-10
7.76223e-10
7.62086e-10
7.46582e-10
7.31077e-10
7.14428e-10
6.97561e-10
6.79879e-10
6.61719e-10
6.43059e-10
6.23678e-10
6.04102e-10
5.83572e-10
5.63043e-10
5.41534e-10
5.19927e-10
4.97677e-10
4.75063e-10
4.52089e-10
4.28524e-10
4.04819e-10
3.80326e-10
3.55833e-10
3.30414e-10
3.04966e-10
2.91845e-10
2.78599e-10
2.65352e-10
2.52106e-10
2.38352e-10
2.24501e-10
2.1065e-10
1.96597e-10
1.82026e-10
1.67455e-10
1.52783e-10
1.37364e-10
1.21946e-10
1.06113e-10
8.97512e-11
7.31218e-11
5.58034e-11
3.79187e-11
2.88037e-11
1.9382e-11
9.80506e-12
0
)


113
(
0
2.4009e-11
4.67465e-11
6.82695e-11
8.87843e-11
1.0839e-10
1.27086e-10
1.44841e-10
1.61946e-10
1.78491e-10
1.94128e-10
2.09248e-10
2.23962e-10
2.37804e-10
2.5131e-10
2.64331e-10
2.76728e-10
2.88844e-10
3.00344e-10
3.11469e-10
3.22261e-10
3.32444e-10
3.42388e-10
3.5185e-10
3.60907e-10
3.69725e-10
3.7794e-10
3.85909e-10
3.93523e-10
4.00667e-10
4.07571e-10
4.14018e-10
4.20114e-10
4.25976e-10
4.31282e-10
4.36347e-10
4.41091e-10
4.45362e-10
4.49399e-10
4.53032e-10
4.56285e-10
4.593e-10
4.61828e-10
4.64065e-10
4.66024e-10
4.67487e-10
4.6879e-10
4.69552e-10
4.70113e-10
4.70249e-10
4.70085e-10
4.69583e-10
4.68693e-10
4.67545e-10
4.65946e-10
4.64137e-10
4.61848e-10
4.59363e-10
4.56404e-10
4.53231e-10
4.49625e-10
4.45754e-10
4.41516e-10
4.36939e-10
4.3209e-10
4.26799e-10
4.21349e-10
4.1534e-10
4.09301e-10
4.02567e-10
3.95832e-10
3.88483e-10
3.81016e-10
3.73082e-10
3.64874e-10
3.56356e-10
3.47391e-10
3.38293e-10
3.28547e-10
3.188e-10
3.08312e-10
2.97751e-10
2.86643e-10
2.75228e-10
2.63469e-10
2.5115e-10
2.38687e-10
2.25404e-10
2.12121e-10
1.97836e-10
1.8352e-10
1.75942e-10
1.68232e-10
1.60523e-10
1.52813e-10
1.44614e-10
1.36323e-10
1.28032e-10
1.19573e-10
1.10682e-10
1.0179e-10
9.28274e-11
8.33378e-11
7.38482e-11
6.41103e-11
5.40564e-11
4.38645e-11
3.33174e-11
2.25122e-11
1.7032e-11
1.1424e-11
5.75532e-12
0
)


113
(
0
1.99881e-12
3.94933e-12
5.84919e-12
7.70312e-12
9.51255e-12
1.12741e-11
1.29816e-11
1.4649e-11
1.62808e-11
1.78509e-11
1.93829e-11
2.0885e-11
2.23185e-11
2.37237e-11
2.50885e-11
2.63983e-11
2.76828e-11
2.89105e-11
3.01026e-11
3.1263e-11
3.23634e-11
3.34401e-11
3.44683e-11
3.54553e-11
3.64177e-11
3.73179e-11
3.81923e-11
3.90296e-11
3.98175e-11
4.05802e-11
4.12947e-11
4.19721e-11
4.26248e-11
4.32186e-11
4.37869e-11
4.43213e-11
4.48057e-11
4.52654e-11
4.56824e-11
4.60593e-11
4.64112e-11
4.67117e-11
4.69816e-11
4.72221e-11
4.74104e-11
4.75818e-11
4.76962e-11
4.77894e-11
4.78376e-11
4.78541e-11
4.78348e-11
4.77743e-11
4.76862e-11
4.75501e-11
4.73913e-11
4.7181e-11
4.69497e-11
4.66668e-11
4.63608e-11
4.60074e-11
4.5625e-11
4.5202e-11
4.47415e-11
4.42508e-11
4.37106e-11
4.31526e-11
4.25314e-11
4.19068e-11
4.12031e-11
4.04993e-11
3.97251e-11
3.89374e-11
3.8096e-11
3.72231e-11
3.63145e-11
3.53546e-11
3.43796e-11
3.33308e-11
3.2282e-11
3.11504e-11
3.00106e-11
2.88117e-11
2.75794e-11
2.63117e-11
2.49862e-11
2.36467e-11
2.22278e-11
2.08089e-11
1.93005e-11
1.77894e-11
1.7e-11
1.61998e-11
1.53996e-11
1.45995e-11
1.37641e-11
1.29219e-11
1.20798e-11
1.12268e-11
1.03462e-11
9.46565e-12
8.58098e-12
7.66641e-12
6.75184e-12
5.82468e-12
4.88152e-12
3.93203e-12
2.96626e-12
1.98957e-12
1.49798e-12
1.00129e-12
5.02271e-13
0
)

)


10
(

113
(
0
1.74151e-41
2.86391e-39
1.4928e-37
1.76183e-36
2.10612e-35
4.33546e-34
1.0357e-32
2.03025e-31
2.97681e-30
3.25462e-29
2.72622e-28
1.81836e-27
9.99248e-27
4.50003e-26
1.90212e-25
1.0717e-24
5.71316e-24
2.81125e-23
1.24653e-22
4.91813e-22
1.72202e-21
5.36402e-21
2.01732e-20
7.289e-20
2.64853e-19
1.03498e-18
4.96383e-18
3.51007e-17
3.58761e-16
4.16128e-15
4.58409e-14
4.47893e-13
3.79205e-12
2.86295e-11
2.18464e-10
1.38718e-09
6.73597e-09
2.44731e-08
6.55553e-08
1.29621e-07
1.91597e-07
2.19996e-07
2.08367e-07
1.72173e-07
1.30249e-07
9.4182e-08
6.74777e-08
4.96397e-08
3.78334e-08
2.97174e-08
2.39628e-08
1.96495e-08
1.62137e-08
1.33136e-08
1.08164e-08
8.57018e-09
6.55785e-09
4.77921e-09
3.35272e-09
2.25426e-09
1.39801e-09
8.06718e-10
4.73157e-10
2.41348e-10
1.16669e-10
6.03736e-11
2.48363e-11
1.19765e-11
5.15336e-12
1.83023e-12
9.61075e-13
3.37064e-13
1.66288e-13
6.33531e-14
2.71826e-14
1.16867e-14
4.1911e-15
2.11965e-15
6.83966e-16
3.76014e-16
1.25016e-16
6.36119e-17
2.13538e-17
9.55013e-18
3.15023e-18
1.10065e-18
3.64869e-19
6.70286e-20
3.01424e-20
4.81072e-21
3.17248e-21
1.53424e-21
4.27911e-22
2.83813e-22
1.39714e-22
3.8113e-23
2.43736e-23
1.06342e-23
3.4879e-24
1.95789e-24
4.78583e-25
2.82862e-25
8.71407e-26
3.45655e-26
7.04419e-27
2.85543e-27
4.95878e-28
5.24465e-29
7.23049e-30
1.30523e-30
2.09219e-32
0
)


113
(
0
1.343e-24
4.20528e-23
9.83223e-22
1.03545e-20
7.47167e-20
5.66494e-19
3.7022e-18
2.05452e-17
1.04165e-16
4.87176e-16
1.94187e-15
7.30531e-15
2.47672e-14
7.36547e-14
2.0946e-13
6.24272e-13
1.71199e-12
4.36336e-12
1.03795e-11
2.31404e-11
4.86033e-11
9.6951e-11
1.97246e-10
3.78359e-10
6.88449e-10
1.20203e-09
2.02681e-09
3.31182e-09
5.20378e-09
7.82744e-09
1.13686e-08
1.60011e-08
2.18533e-08
2.89087e-08
3.7093e-08
4.61429e-08
5.56824e-08
6.52117e-08
7.42114e-08
8.20909e-08
8.82328e-08
9.24132e-08
9.42019e-08
9.36792e-08
9.08939e-08
8.61009e-08
7.97262e-08
7.22783e-08
6.41917e-08
5.58813e-08
4.77768e-08
4.01864e-08
3.32887e-08
2.71679e-08
2.20592e-08
1.77411e-08
1.40835e-08
1.10139e-08
8.62835e-09
6.71819e-09
5.13166e-09
3.87447e-09
2.94901e-09
2.17734e-09
1.58066e-09
1.15931e-09
8.0912e-10
5.68425e-10
3.91252e-10
2.50909e-10
1.72557e-10
1.06192e-10
6.83809e-11
4.10281e-11
2.39673e-11
1.41942e-11
7.24112e-12
4.32854e-12
1.95068e-12
1.15619e-12
4.93485e-13
2.69491e-13
1.10295e-13
5.41744e-14
2.18579e-14
8.70529e-15
3.49462e-15
9.31264e-16
4.65585e-16
1.26859e-16
8.70534e-17
4.72475e-17
1.94265e-17
1.32857e-17
7.14502e-18
2.7067e-18
1.78808e-18
8.69466e-19
3.63966e-19
2.1038e-19
6.17084e-20
3.74286e-20
1.31487e-20
5.92537e-21
1.6915e-21
7.53552e-22
1.96923e-22
4.80721e-23
1.81349e-23
7.30581e-24
1.92191e-24
0
)


113
(
0
4.67113e-13
1.58571e-12
4.03377e-12
8.50157e-12
1.60652e-11
2.88631e-11
5.01994e-11
8.34232e-11
1.30683e-10
1.99441e-10
2.9608e-10
4.29168e-10
6.08188e-10
8.40739e-10
1.14257e-09
1.54946e-09
2.06065e-09
2.6843e-09
3.43004e-09
4.31651e-09
5.37273e-09
6.62526e-09
8.10998e-09
9.77509e-09
1.16075e-08
1.3604e-08
1.57723e-08
1.81374e-08
2.07171e-08
2.34888e-08
2.63889e-08
2.92816e-08
3.21075e-08
3.48591e-08
3.7635e-08
4.03013e-08
4.27587e-08
4.50033e-08
4.69749e-08
4.86588e-08
4.99737e-08
5.08991e-08
5.14993e-08
5.16775e-08
5.14928e-08
5.08922e-08
4.98894e-08
4.86767e-08
4.71162e-08
4.51646e-08
4.29329e-08
4.05448e-08
3.80667e-08
3.55137e-08
3.2873e-08
3.01634e-08
2.74983e-08
2.49239e-08
2.24727e-08
2.0101e-08
1.78138e-08
1.56421e-08
1.36759e-08
1.18349e-08
1.01509e-08
8.6999e-09
7.3609e-09
6.21712e-09
5.21178e-09
4.2867e-09
3.55213e-09
2.8715e-09
2.32914e-09
1.8662e-09
1.48143e-09
1.17627e-09
9.01933e-10
7.07956e-10
5.271e-10
4.07956e-10
2.99325e-10
2.25693e-10
1.63235e-10
1.18552e-10
8.41742e-11
5.80934e-11
4.07182e-11
2.62448e-11
1.82376e-11
1.14138e-11
9.35229e-12
7.29074e-12
5.58238e-12
4.51294e-12
3.44349e-12
2.54833e-12
2.01348e-12
1.47863e-12
1.08688e-12
8.17039e-13
5.52126e-13
4.1204e-13
2.71954e-13
1.88297e-13
1.14707e-13
7.38928e-14
4.17369e-14
2.08832e-14
1.33177e-14
7.95532e-15
3.6227e-15
0
)


113
(
0
6.62342e-11
1.49005e-10
2.60805e-10
4.03307e-10
5.81174e-10
7.99385e-10
1.06263e-09
1.37517e-09
1.74075e-09
2.16259e-09
2.64346e-09
3.17568e-09
3.77286e-09
4.48195e-09
5.29252e-09
6.09329e-09
6.93127e-09
7.88391e-09
8.89462e-09
9.92883e-09
1.10547e-08
1.22474e-08
1.35141e-08
1.47474e-08
1.60099e-08
1.73389e-08
1.87272e-08
2.00917e-08
2.13917e-08
2.26808e-08
2.38827e-08
2.50592e-08
2.63168e-08
2.75725e-08
2.86777e-08
2.95286e-08
3.04249e-08
3.12545e-08
3.19628e-08
3.25479e-08
3.3028e-08
3.33993e-08
3.3626e-08
3.37682e-08
3.37749e-08
3.36931e-08
3.34332e-08
3.30376e-08
3.26879e-08
3.20963e-08
3.13514e-08
3.05563e-08
2.9727e-08
2.88122e-08
2.77631e-08
2.66867e-08
2.56165e-08
2.45461e-08
2.33661e-08
2.21312e-08
2.08544e-08
1.95308e-08
1.83189e-08
1.715e-08
1.60254e-08
1.48622e-08
1.3694e-08
1.25321e-08
1.14916e-08
1.05214e-08
9.57495e-09
8.63557e-09
7.71456e-09
6.84933e-09
6.03899e-09
5.41786e-09
4.86995e-09
4.32225e-09
3.77552e-09
3.24044e-09
2.73208e-09
2.3127e-09
1.92601e-09
1.59135e-09
1.32424e-09
1.11153e-09
9.29372e-10
7.57393e-10
6.14783e-10
4.83023e-10
4.29852e-10
3.76681e-10
3.28455e-10
2.89177e-10
2.49899e-10
2.14028e-10
1.85202e-10
1.56376e-10
1.317e-10
1.10558e-10
8.9627e-11
7.40301e-11
5.84332e-11
4.61915e-11
3.45546e-11
2.56318e-11
1.76478e-11
1.09481e-11
7.96134e-12
5.25149e-12
2.63407e-12
0
)


113
(
0
2.97857e-10
5.90793e-10
9.09581e-10
1.25984e-09
1.64496e-09
2.06618e-09
2.52311e-09
3.01451e-09
3.53874e-09
4.09407e-09
4.67869e-09
5.29078e-09
5.92853e-09
6.59e-09
7.27461e-09
7.98056e-09
8.70275e-09
9.43868e-09
1.01858e-08
1.09413e-08
1.17025e-08
1.24663e-08
1.3229e-08
1.3956e-08
1.47301e-08
1.55938e-08
1.63379e-08
1.69942e-08
1.77212e-08
1.83732e-08
1.90327e-08
1.97049e-08
2.01979e-08
2.0869e-08
2.13663e-08
2.17876e-08
2.20631e-08
2.24215e-08
2.28929e-08
2.31748e-08
2.33268e-08
2.35218e-08
2.3644e-08
2.37247e-08
2.37595e-08
2.37451e-08
2.36919e-08
2.35702e-08
2.34282e-08
2.32255e-08
2.29303e-08
2.26166e-08
2.22798e-08
2.18352e-08
2.15389e-08
2.11176e-08
2.05966e-08
2.00065e-08
1.94366e-08
1.89344e-08
1.83688e-08
1.76318e-08
1.71102e-08
1.65465e-08
1.5866e-08
1.49209e-08
1.40498e-08
1.35324e-08
1.31577e-08
1.28659e-08
1.17895e-08
1.07e-08
9.65873e-09
9.08173e-09
8.96169e-09
8.41376e-09
7.70025e-09
7.11145e-09
6.53805e-09
6e-09
5.47161e-09
4.97535e-09
4.49608e-09
4.04383e-09
3.61644e-09
3.20906e-09
2.835e-09
2.47205e-09
2.15151e-09
1.84317e-09
1.70319e-09
1.56322e-09
1.42981e-09
1.30829e-09
1.18677e-09
1.07066e-09
9.65705e-10
8.60753e-10
7.63636e-10
6.73191e-10
5.83213e-10
5.05035e-10
4.26858e-10
3.57026e-10
2.887e-10
2.27415e-10
1.68375e-10
1.12125e-10
8.4599e-11
5.70927e-11
2.91117e-11
0
)


113
(
0
4.74277e-10
9.07579e-10
1.33025e-09
1.75553e-09
2.1891e-09
2.63374e-09
3.09021e-09
3.55803e-09
4.03603e-09
4.52278e-09
5.01674e-09
5.51643e-09
6.02038e-09
6.52719e-09
7.03547e-09
7.54343e-09
8.04963e-09
8.55281e-09
9.05174e-09
9.54521e-09
1.0032e-08
1.05109e-08
1.0979e-08
1.14367e-08
1.18827e-08
1.23161e-08
1.27358e-08
1.31407e-08
1.353e-08
1.39025e-08
1.42576e-08
1.45943e-08
1.4904e-08
1.50463e-08
1.53201e-08
1.5573e-08
1.58048e-08
1.60149e-08
1.62031e-08
1.63691e-08
1.6512e-08
1.6632e-08
1.6802e-08
1.73537e-08
1.7321e-08
1.74148e-08
1.74215e-08
1.74407e-08
1.74046e-08
1.73089e-08
1.72497e-08
1.71666e-08
1.70177e-08
1.68356e-08
1.66701e-08
1.68563e-08
1.6463e-08
1.54153e-08
1.51402e-08
1.4847e-08
1.45401e-08
1.42178e-08
1.38766e-08
1.35252e-08
1.31614e-08
1.27413e-08
1.23193e-08
1.1922e-08
1.15166e-08
1.11066e-08
1.06867e-08
1.02646e-08
9.83684e-09
9.40683e-09
8.97459e-09
8.54133e-09
8.10768e-09
7.67568e-09
7.24423e-09
6.81744e-09
6.39254e-09
5.97395e-09
5.55967e-09
5.15225e-09
4.75252e-09
4.35899e-09
3.97765e-09
3.60038e-09
3.24114e-09
2.88781e-09
2.71805e-09
2.54829e-09
2.38212e-09
2.22244e-09
2.06277e-09
1.90631e-09
1.75649e-09
1.60668e-09
1.4617e-09
1.32084e-09
1.18026e-09
1.0467e-09
9.1313e-10
7.83731e-10
6.55072e-10
5.28435e-10
4.01407e-10
2.72962e-10
2.0775e-10
1.40639e-10
7.16909e-11
0
)


113
(
0
4.82873e-10
9.20822e-10
1.33044e-09
1.7239e-09
2.10647e-09
2.48172e-09
2.85201e-09
3.21879e-09
3.58279e-09
3.9443e-09
4.30331e-09
4.65965e-09
5.01301e-09
5.36304e-09
5.709e-09
6.05003e-09
6.38615e-09
6.71691e-09
7.04186e-09
7.36055e-09
7.67255e-09
7.97741e-09
8.29094e-09
8.57609e-09
8.84885e-09
9.11194e-09
9.36499e-09
9.60764e-09
9.83955e-09
1.00604e-08
1.02699e-08
1.04678e-08
1.06538e-08
1.08276e-08
1.09889e-08
1.11378e-08
1.12741e-08
1.13977e-08
1.15086e-08
1.16067e-08
1.16915e-08
1.17632e-08
1.18219e-08
1.18676e-08
1.19004e-08
1.19203e-08
1.19275e-08
1.19211e-08
1.19014e-08
1.18691e-08
1.18243e-08
1.17674e-08
1.16987e-08
1.16186e-08
1.15241e-08
1.14178e-08
1.1301e-08
1.11743e-08
1.10342e-08
1.08829e-08
1.07227e-08
1.05526e-08
1.03695e-08
1.01791e-08
9.9798e-09
9.7686e-09
9.55166e-09
9.32465e-09
9.08942e-09
8.84943e-09
8.59766e-09
8.34258e-09
8.07904e-09
7.81033e-09
7.53653e-09
7.2562e-09
6.97336e-09
6.67984e-09
6.38489e-09
6.08558e-09
5.78549e-09
5.48283e-09
5.17947e-09
4.87499e-09
4.57036e-09
4.26561e-09
3.9617e-09
3.65809e-09
3.35673e-09
3.05626e-09
2.90706e-09
2.75786e-09
2.60917e-09
2.46141e-09
2.31366e-09
2.16621e-09
2.01941e-09
1.87262e-09
1.72581e-09
1.57899e-09
1.43212e-09
1.28383e-09
1.13554e-09
9.84545e-10
8.33036e-10
6.76748e-10
5.17391e-10
3.5287e-10
2.68512e-10
1.81386e-10
9.21046e-11
0
)


113
(
0
3.73763e-10
7.18686e-10
1.04002e-09
1.3442e-09
1.63377e-09
1.91078e-09
2.17706e-09
2.43409e-09
2.68302e-09
2.92472e-09
3.15982e-09
3.3888e-09
3.61199e-09
3.82963e-09
4.04151e-09
4.24741e-09
4.44807e-09
4.64347e-09
4.8336e-09
5.0184e-09
5.19779e-09
5.37168e-09
5.53911e-09
5.7009e-09
5.85693e-09
6.0071e-09
6.15131e-09
6.28945e-09
6.42142e-09
6.54713e-09
6.66648e-09
6.77938e-09
6.88575e-09
6.98552e-09
7.07847e-09
7.1647e-09
7.24423e-09
7.31701e-09
7.38301e-09
7.4422e-09
7.49435e-09
7.53955e-09
7.57788e-09
7.60936e-09
7.63399e-09
7.65182e-09
7.66287e-09
7.66668e-09
7.66339e-09
7.65337e-09
7.63662e-09
7.61329e-09
7.58354e-09
7.54756e-09
7.50365e-09
7.4532e-09
7.39682e-09
7.3348e-09
7.2652e-09
7.18904e-09
7.10774e-09
7.02054e-09
6.92555e-09
6.82607e-09
6.72106e-09
6.60855e-09
6.49233e-09
6.36952e-09
6.24115e-09
6.10955e-09
5.96959e-09
5.82717e-09
5.67841e-09
5.52551e-09
5.36853e-09
5.20582e-09
5.04091e-09
4.86911e-09
4.69607e-09
4.51638e-09
4.33512e-09
4.14862e-09
3.95963e-09
3.76667e-09
3.57027e-09
3.3711e-09
3.16735e-09
2.96207e-09
2.75059e-09
2.53709e-09
2.42798e-09
2.31886e-09
2.20842e-09
2.09557e-09
1.98272e-09
1.86848e-09
1.75134e-09
1.6342e-09
1.51438e-09
1.39227e-09
1.26996e-09
1.14221e-09
1.01446e-09
8.81437e-10
7.47452e-10
6.07131e-10
4.63646e-10
3.15224e-10
2.39212e-10
1.6109e-10
8.1468e-11
0
)


113
(
0
2.0244e-10
3.93926e-10
5.75093e-10
7.47804e-10
9.1254e-10
1.06976e-09
1.22001e-09
1.36381e-09
1.50168e-09
1.63403e-09
1.76125e-09
1.88364e-09
2.00145e-09
2.11491e-09
2.22393e-09
2.32847e-09
2.42919e-09
2.52622e-09
2.61965e-09
2.70956e-09
2.79602e-09
2.87909e-09
2.95834e-09
3.03436e-09
3.1072e-09
3.17687e-09
3.24342e-09
3.30685e-09
3.36721e-09
3.42449e-09
3.47873e-09
3.52993e-09
3.57811e-09
3.62327e-09
3.66536e-09
3.70447e-09
3.74062e-09
3.77383e-09
3.8041e-09
3.83145e-09
3.8558e-09
3.87718e-09
3.89566e-09
3.91124e-09
3.92394e-09
3.93378e-09
3.94077e-09
3.94471e-09
3.94567e-09
3.94378e-09
3.93906e-09
3.93154e-09
3.9213e-09
3.9084e-09
3.8921e-09
3.87296e-09
3.85125e-09
3.82706e-09
3.79954e-09
3.76909e-09
3.73631e-09
3.70087e-09
3.66181e-09
3.62065e-09
3.57688e-09
3.52948e-09
3.48024e-09
3.42772e-09
3.37231e-09
3.31523e-09
3.25364e-09
3.19067e-09
3.12409e-09
3.05502e-09
2.98349e-09
2.90827e-09
2.83162e-09
2.75016e-09
2.66781e-09
2.58038e-09
2.49164e-09
2.3985e-09
2.30305e-09
2.20395e-09
2.10138e-09
1.99601e-09
1.8857e-09
1.77375e-09
1.65491e-09
1.53386e-09
1.47075e-09
1.40764e-09
1.34316e-09
1.27621e-09
1.20926e-09
1.14101e-09
1.07007e-09
9.99135e-10
9.2601e-10
8.51018e-10
7.75874e-10
6.96863e-10
6.17851e-10
5.35568e-10
4.52688e-10
3.66342e-10
2.78446e-10
1.88214e-10
1.42294e-10
9.54935e-11
4.80988e-11
0
)


113
(
0
1.67804e-11
3.31488e-11
4.90891e-11
6.46473e-11
7.98162e-11
9.45896e-11
1.08968e-10
1.22958e-10
1.36564e-10
1.49796e-10
1.6266e-10
1.75162e-10
1.87307e-10
1.991e-10
2.10519e-10
2.21547e-10
2.32233e-10
2.42578e-10
2.52586e-10
2.62257e-10
2.71593e-10
2.80594e-10
2.89212e-10
2.97503e-10
3.05468e-10
3.13108e-10
3.20423e-10
3.27416e-10
3.34086e-10
3.40434e-10
3.46462e-10
3.52171e-10
3.57561e-10
3.62634e-10
3.67382e-10
3.71816e-10
3.75939e-10
3.79752e-10
3.83256e-10
3.86453e-10
3.89332e-10
3.91901e-10
3.94163e-10
3.96122e-10
3.97777e-10
3.99131e-10
4.00185e-10
4.00917e-10
4.01334e-10
4.01451e-10
4.01266e-10
4.00785e-10
4.00013e-10
3.98958e-10
3.97537e-10
3.95812e-10
3.93808e-10
3.91537e-10
3.88902e-10
3.85945e-10
3.82733e-10
3.79226e-10
3.75318e-10
3.71175e-10
3.66739e-10
3.61893e-10
3.56839e-10
3.51412e-10
3.45654e-10
3.39705e-10
3.33236e-10
3.26607e-10
3.19563e-10
3.12229e-10
3.04611e-10
2.96567e-10
2.88359e-10
2.79601e-10
2.7074e-10
2.61309e-10
2.51732e-10
2.41672e-10
2.31366e-10
2.20671e-10
2.09622e-10
1.98289e-10
1.8648e-10
1.74512e-10
1.61924e-10
1.49152e-10
1.4255e-10
1.35949e-10
1.29243e-10
1.2235e-10
1.15456e-10
1.08472e-10
1.01302e-10
9.41326e-11
8.68254e-11
7.9401e-11
7.1968e-11
6.43149e-11
5.66617e-11
4.88389e-11
4.09853e-11
3.29665e-11
2.48789e-11
1.669e-11
1.2562e-11
8.39884e-12
4.2127e-12
0
)

)


10
(

113
(
0
2.21391e-37
3.47e-35
9.88421e-34
1.34193e-32
1.4803e-31
2.04136e-30
4.12264e-29
8.00732e-28
1.12285e-26
1.11956e-25
8.04917e-25
4.2275e-24
1.65462e-23
6.30077e-23
2.841e-22
1.165e-21
4.14308e-21
1.175e-20
3.825e-20
1.35815e-19
4.735e-19
1.64267e-18
5.36077e-18
1.52146e-17
7.3575e-17
4.37042e-16
2.98592e-15
2.01575e-14
1.0825e-13
5.7075e-13
4.81673e-12
3.39833e-11
1.9805e-10
9.92364e-10
4.43273e-09
1.62364e-08
4.93636e-08
1.27e-07
2.80636e-07
4.83364e-07
6.866e-07
7.90273e-07
7.825e-07
6.81818e-07
5.40909e-07
3.96364e-07
2.76333e-07
1.88167e-07
1.24e-07
8.63077e-08
5.68e-08
3.63385e-08
2.27286e-08
1.43714e-08
8.91714e-09
5.08857e-09
2.61e-09
1.53667e-09
7.94063e-10
3.82187e-10
2.07688e-10
8.99e-11
4.29e-11
2.00006e-11
7.43e-12
4.30778e-12
1.65656e-12
8.89333e-13
3.558e-13
1.728e-13
7.54105e-14
3.50947e-14
1.64716e-14
7.14526e-15
3.656e-15
1.626e-15
8.428e-16
3.713e-16
1.906e-16
8.26e-17
4.156e-17
1.726e-17
8.09684e-18
2.71789e-18
1.34165e-18
4.1015e-19
1.776e-19
3.63089e-20
1.73978e-20
3.50935e-21
2.42494e-21
1.34053e-21
4.47231e-22
3.18388e-22
1.89544e-22
6.07e-23
4.332e-23
2.594e-23
8.56e-24
5.51417e-24
2.46833e-24
9.58727e-25
4.73273e-25
1.47133e-25
5.99667e-26
1.56586e-26
2.61033e-27
3.12e-28
1.32562e-28
1.3215e-29
4.37475e-31
0
)


113
(
0
1.60296e-23
4.86445e-22
7.17077e-21
6.67174e-20
5.01313e-19
3.58369e-18
2.29188e-17
1.31308e-16
6.83496e-16
3.11461e-15
1.21451e-14
4.02743e-14
1.20098e-13
3.81849e-13
1.18881e-12
3.382e-12
8.84001e-12
1.95716e-11
4.49401e-11
1.0779e-10
2.3131e-10
4.64351e-10
8.78525e-10
1.58613e-09
2.91702e-09
5.16328e-09
8.65807e-09
1.38113e-08
2.11149e-08
3.15505e-08
4.58455e-08
6.45122e-08
8.75007e-08
1.14693e-07
1.46015e-07
1.8048e-07
2.16722e-07
2.53099e-07
2.8692e-07
3.162e-07
3.39341e-07
3.53911e-07
3.60042e-07
3.56244e-07
3.43649e-07
3.23696e-07
2.97672e-07
2.67113e-07
2.33745e-07
1.99822e-07
1.6724e-07
1.37101e-07
1.09738e-07
8.59922e-08
6.64944e-08
4.99686e-08
3.63076e-08
2.6845e-08
1.90932e-08
1.30521e-08
9.21052e-09
6.08122e-09
4.04354e-09
2.68167e-09
1.60943e-09
1.09243e-09
6.33389e-10
4.06177e-10
2.32169e-10
1.37964e-10
7.89323e-11
4.33494e-11
2.42238e-11
1.21514e-11
6.84378e-12
3.22737e-12
1.73658e-12
7.772e-13
4.00718e-13
1.69962e-13
8.36662e-14
3.34861e-14
1.53585e-14
5.24386e-15
2.60374e-15
7.94108e-16
3.57522e-16
9.70647e-17
4.87263e-17
1.26494e-17
8.91586e-18
5.18233e-18
2.08009e-18
1.50295e-18
9.25822e-19
3.4869e-19
2.48425e-19
1.48159e-19
4.78938e-20
3.16926e-20
1.54914e-20
6.99041e-21
3.62295e-21
1.30911e-21