/*--------------------------------*- C++ -*----------------------------------*\
| =========                 |                                                 |
| \\      /  F ield         | OpenFOAM: The Open Source CFD Toolbox           |
|  \\    /   O peration     | Version:  2.3.0                                 |
|   \\  /    A nd           | Web:      www.OpenFOAM.org                      |
|    \\/     M anipulation  |                                                 |
\*---------------------------------------------------------------------------*/
FoamFile
{
    version     2.0;
    format      ascii;
    class       dictionary;
    location    "constant";
    object      CO2;
}
// * * * * * * * * * * * * * * * * * * * * * * * * * * * * * * * * * * * * * //

CO2_table
13
(

10
(

113
(
0
0.00211167
0.00495169
0.0081931
0.0116684
0.0153833
0.0192722
0.023273
0.0273876
0.031606
0.0359768
0.0404128
0.0449
0.049617
0.0543609
0.0591435
0.0640264
0.0689396
0.0738787
0.0788337
0.0838031
0.0886902
0.0935358
0.0982889
0.102765
0.107075
0.110801
0.114019
0.116503
0.118509
0.120262
0.121512
0.121616
0.120987
0.120358
0.119184
0.117285
0.115386
0.113487
0.111589
0.109682
0.107776
0.105913
0.104389
0.103192
0.102029
0.100877
0.0997598
0.0987059
0.097787
0.0968979
0.0960422
0.0951687
0.0942833
0.0933787
0.092465
0.091497
0.0905069
0.0894667
0.0884039
0.0872619
0.0860714
0.0848196
0.0835112
0.082137
0.0806556
0.0791367
0.0774853
0.0758255
0.0739618
0.0720982
0.0700516
0.0679701
0.0656959
0.0633086
0.0608201
0.0581862
0.0555336
0.0527903
0.0500469
0.0471943
0.0443308
0.0415159
0.0387283
0.0359435
0.0331632
0.0304009
0.0277404
0.0250798
0.0225402
0.0200043
0.0187694
0.0175449
0.0163204
0.0150959
0.0139326
0.0127809
0.0116292
0.0105032
0.00944304
0.00838291
0.00733134
0.00634254
0.00535373
0.00440481
0.00350667
0.00263704
0.00184074
0.00110682
0.000759714
0.000456143
0.000190619
0
)


113
(
0
0.00242304
0.00537373
0.00864131
0.0121551
0.0158584
0.0197331
0.0237696
0.0279129
0.0321473
0.0365237
0.0409765
0.0454893
0.050115
0.054773
0.0594772
0.0642035
0.0689284
0.073619
0.0782412
0.0828027
0.0871514
0.0913857
0.0953614
0.0990389
0.102537
0.105482
0.108165
0.110471
0.112235
0.113724
0.114683
0.115259
0.115579
0.115361
0.114952
0.11429
0.113344
0.112291
0.11108
0.10979
0.108459
0.107101
0.105754
0.10442
0.103141
0.10188
0.100688
0.0995206
0.098406
0.097317
0.096257
0.0952123
0.094178
0.0931388
0.0920973
0.0910276
0.0899465
0.0888167
0.087665
0.0864518
0.0852008
0.0838842
0.0825073
0.0810731
0.0795456
0.0779802
0.0762804
0.0745731
0.0726828
0.0707925
0.0687335
0.0666423
0.0644277
0.0621407
0.0597808
0.057316
0.0548277
0.0522238
0.0496199
0.0469362
0.0442446
0.0415323
0.0388084
0.0360924
0.0333891
0.0306953
0.0280548
0.0254143
0.0228638
0.0203162
0.019086
0.0178697
0.0166533
0.015437
0.0142766
0.0131269
0.0119772
0.0108481
0.00977241
0.00869667
0.00763057
0.00663517
0.00563978
0.00468207
0.00377234
0.00288689
0.0020639
0.00129421
0.000926233
0.000594432
0.000285958
0
)


113
(
0
0.00299437
0.00617302
0.00961889
0.0132396
0.0170141
0.0209852
0.0250014
0.0290721
0.0331917
0.0373592
0.0415485
0.0457549
0.0499477
0.0541129
0.0582383
0.0622704
0.0662496
0.0700846
0.0737963
0.0773987
0.0807565
0.0840064
0.0870268
0.0898275
0.0924975
0.0948151
0.0969792
0.0989222
0.10057
0.102067
0.103274
0.10427
0.105123
0.105657
0.106064
0.106304
0.10632
0.106232
0.10597
0.105575
0.105101
0.10448
0.103785
0.103019
0.102159
0.101268
0.100282
0.0992726
0.0982167
0.0971292
0.0960062
0.0948517
0.0936764
0.0924604
0.0912252
0.08995
0.0886585
0.0873194
0.0859588
0.0845499
0.0831115
0.0816244
0.0800925
0.0785196
0.0768796
0.0752143
0.0734592
0.071699
0.0698171
0.0679351
0.0659459
0.0639363
0.0618466
0.0597098
0.0575249
0.0552708
0.0529995
0.0506439
0.0482883
0.0458562
0.0434166
0.0409437
0.038452
0.0359515
0.0334366
0.0309232
0.0284187
0.0259142
0.0234573
0.0210019
0.0198007
0.0186078
0.017415
0.0162222
0.0150691
0.0139237
0.0127782
0.0116444
0.0105402
0.009436
0.00834102
0.00731353
0.00628605
0.0052871
0.0043245
0.00338034
0.00248362
0.00163124
0.00121836
0.000827181
0.000434489
0
)


113
(
0
0.00358226
0.00690932
0.0103627
0.0139279
0.0175678
0.0212564
0.0249676
0.0286792
0.0323862
0.0360611
0.0396995
0.0433092
0.0469443
0.0504947
0.0539231
0.0572074
0.0604246
0.0634898
0.0664283
0.0692546
0.0719049
0.0744869
0.0769302
0.079209
0.0813906
0.0833525
0.0852221
0.0869589
0.088506
0.0899574
0.0912273
0.0923628
0.093408
0.0942364
0.094975
0.0955947
0.0960424
0.0964098
0.0966421
0.0967466
0.0967736
0.0966544
0.0964507
0.0961657
0.0957534
0.0952997
0.0947062
0.0940686
0.0933373
0.0925406
0.0916703
0.090727
0.0897353
0.0886646
0.0875568
0.0863632
0.0851345
0.0838343
0.082502
0.0811076
0.0796753
0.0781842
0.0766387
0.0750602
0.0734279
0.0717745
0.0700465
0.0683145
0.0664867
0.0646588
0.0627575
0.0608424
0.0588763
0.0568805
0.0548519
0.0527761
0.0506893
0.0485485
0.0464076
0.0441999
0.0419856
0.0397533
0.0375109
0.0352383
0.0329162
0.0305901
0.0282407
0.0258913
0.0235851
0.0212803
0.0201379
0.0189986
0.0178594
0.0167202
0.0155997
0.0144828
0.0133659
0.0122575
0.0111711
0.0100848
0.00900311
0.00795607
0.00690902
0.00588331
0.00488475
0.00389939
0.00294795
0.00200931
0.00154215
0.00106197
0.000559173
0
)


113
(
0
0.00380003
0.00711553
0.010319
0.0135173
0.016727
0.0199433
0.0231455
0.026323
0.0294745
0.0325615
0.0355978
0.0385943
0.0414834
0.0443226
0.0470903
0.0497513
0.0523614
0.0548525
0.0572639
0.0596044
0.061804
0.0639462
0.0659693
0.0679529
0.069911
0.0717101
0.0734193
0.0749991
0.0764175
0.0777607
0.0789728
0.0800769
0.0811084
0.0819713
0.0827649
0.0834668
0.0840345
0.0845386
0.084935
0.0852285
0.0854592
0.0855678
0.0856027
0.0855667
0.0854133
0.0852235
0.0849192
0.0845667
0.0841117
0.0835965
0.0830134
0.0823511
0.0816361
0.0808325
0.0799872
0.079064
0.078109
0.0770519
0.075949
0.074792
0.0736017
0.072344
0.071024
0.0696618
0.0682308
0.0667846
0.0652847
0.0637794
0.0621456
0.0605118
0.0587748
0.0570181
0.0552249
0.0534103
0.0515395
0.0495879
0.0476381
0.0456974
0.0437568
0.0417623
0.0397624
0.0377307
0.035681
0.0336163
0.0315271
0.0294338
0.0273167
0.0251996
0.0230678
0.0209355
0.0198693
0.018803
0.0177368
0.0166705
0.0156116
0.0145541
0.0134967
0.0124444
0.0114056
0.0103668
0.00933101
0.00831744
0.00730386
0.00629897
0.00530513
0.00431007
0.00331184
0.00228654
0.00176412
0.00120946
0.000628855
0
)


113
(
0
0.00355263
0.00664372
0.00949965
0.0122448
0.0149243
0.0175569
0.0201476
0.0227063
0.025236
0.027708
0.0301381
0.0325352
0.0348454
0.0371159
0.0393292
0.0414585
0.0435481
0.0455455
0.0474821
0.0493648
0.0511418
0.0528761
0.0545224
0.0560923
0.0576168
0.059024
0.0603823
0.06167
0.062863
0.0640076
0.0650595
0.0660403
0.0669725
0.0677477
0.0684928
0.0691982
0.0698094
0.0703747
0.0708607
0.0712736
0.0716413
0.0719174
0.0724656
0.0732753
0.0736078
0.0738265
0.0738594
0.0738225
0.0736375
0.073355
0.0729624
0.0724745
0.0719229
0.0712106
0.0704226
0.0690921
0.06754
0.0664988
0.065687
0.0648071
0.0638853
0.062908
0.0618794
0.0608115
0.0596797
0.0585419
0.057383
0.056217
0.0548785
0.0535401
0.0521298
0.0507058
0.0492306
0.0477255
0.0461889
0.0446073
0.0430136
0.0413605
0.0397075
0.0379948
0.0362762
0.0345202
0.0327431
0.0309471
0.0291202
0.0272875
0.0254217
0.0235558
0.0216649
0.0197731
0.0188229
0.0178714
0.0169198
0.0159682
0.015017
0.0140658
0.0131146
0.012164
0.0112147
0.0102654
0.00931545
0.00836089
0.00740633
0.00644163
0.00546402
0.00447305
0.00344773
0.0023773
0.00182754
0.00124405
0.000639383
0
)


113
(
0
0.00295528
0.00558632
0.0079921
0.0102565
0.0124179
0.0144941
0.0164972
0.0184545
0.0203734
0.0222319
0.0240551
0.0258505
0.0275815
0.0292852
0.0309495
0.0325579
0.0341401
0.0356618
0.0371439
0.0385909
0.0399689
0.0412624
0.042337
0.0434721
0.0446394
0.0457236
0.0467727
0.0477715
0.0487021
0.0495977
0.0504261
0.0512024
0.0519438
0.0526021
0.0532242
0.0537983
0.0543015
0.0547698
0.0551775
0.0555286
0.0558445
0.0560882
0.0562891
0.056449
0.0565369
0.0566014
0.0565878
0.0565457
0.0564429
0.0562979
0.0561054
0.055859
0.0555766
0.0552329
0.0548603
0.0544233
0.0539601
0.0534343
0.0528804
0.0522706
0.0516267
0.0509365
0.0502036
0.0494375
0.0486172
0.0477782
0.0468727
0.0459639
0.0449756
0.0439873
0.0429319
0.0418637
0.0407473
0.0396026
0.0384281
0.0372107
0.0360003
0.0348245
0.0336487
0.032291
0.0309153
0.0295067
0.0280797
0.0266353
0.0251628
0.0236844
0.0221728
0.0206612
0.0191169
0.0175716
0.0167869
0.0159985
0.0152101
0.0144217
0.0136182
0.0128119
0.0120056
0.0111925
0.0103617
0.0095309
0.0086958
0.00782908
0.00696236
0.00607363
0.00515689
0.00422289
0.00324451
0.00222344
0.00169965
0.00114987
0.000585841
0
)


113
(
0
0.00212695
0.00407867
0.00588297
0.00757798
0.00918276
0.0107044
0.0121476
0.0135399
0.0148893
0.0161727
0.0174198
0.0186384
0.0197969
0.0209321
0.0220337
0.0230914
0.024129
0.025122
0.0260871
0.0270272
0.0279201
0.0287941
0.0296294
0.0304312
0.0312132
0.0319438
0.0326528
0.0333308
0.0339668
0.0345811
0.0351538
0.0356941
0.0362126
0.0366792
0.037123
0.0375365
0.037905
0.0382512
0.0385588
0.03883
0.0390784
0.0392801
0.0394538
0.0396008
0.0397005
0.0397847
0.0398172
0.0398306
0.0398036
0.0397481
0.0396607
0.0395368
0.0393884
0.0391982
0.0389881
0.0387337
0.0384613
0.0381453
0.0378098
0.0374353
0.0370367
0.0366055
0.0361442
0.0356593
0.0351358
0.0345988
0.0340142
0.0334271
0.0327827
0.0321382
0.0314447
0.030742
0.0300037
0.0292444
0.0284628
0.027649
0.0268261
0.0259592
0.0250924
0.0241788
0.0232605
0.0223102
0.0213419
0.0203548
0.0193372
0.018312
0.0172443
0.0161767
0.0150577
0.0139372
0.0133547
0.0127652
0.0121757
0.0115861
0.0109685
0.0103454
0.00972234
0.0090883
0.00842601
0.00776373
0.00709601
0.00638847
0.00568093
0.0049516
0.00419454
0.00342361
0.00261697
0.00178125
0.00135453
0.00091215
0.00046187
0
)


113
(
0
0.00115394
0.00224467
0.00327503
0.00425528
0.00519037
0.00608031
0.00692352
0.00773455
0.00851782
0.00925621
0.00996907
0.0106619
0.0113118
0.0119451
0.0125547
0.0131338
0.0136991
0.0142344
0.0147516
0.0152526
0.0157241
0.0161842
0.016621
0.0170384
0.0174444
0.0178216
0.0181872
0.0185359
0.0188623
0.0191774
0.019471
0.0197481
0.0200142
0.0202543
0.0204831
0.020697
0.0208889
0.02107
0.0212322
0.021377
0.0215107
0.021622
0.0217199
0.0218049
0.0218672
0.0219222
0.0219523
0.0219733
0.0219747
0.0219625
0.0219348
0.0218894
0.0218322
0.0217545
0.0216671
0.0215578
0.0214397
0.0212998
0.0211503
0.020981
0.0207995
0.0206013
0.0203876
0.0201616
0.0199152
0.0196617
0.0193824
0.0191019
0.0187894
0.0184769
0.018136
0.0177898
0.017422
0.0170416
0.0166467
0.0162312
0.0158094
0.0153575
0.0149055
0.0144189
0.0139289
0.0134131
0.0128829
0.0123365
0.0117636
0.0111839
0.0105653
0.00994673
0.00928041
0.00861262
0.00825868
0.00789842
0.00753816
0.00717789
0.00679424
0.00640613
0.00601802
0.00562185
0.00520496
0.00478806
0.00436771
0.00392207
0.00347642
0.00301883
0.00254606
0.00206664
0.00157014
0.00106123
0.000803031
0.000538692
0.00027143
0
)


113
(
0
9.87101e-05
0.000195031
0.000288847
0.00038039
0.000469731
0.000556707
0.000641005
0.00072332
0.00080388
0.000881382
0.000957003
0.00103115
0.0011019
0.00117125
0.0012386
0.00130324
0.00136662
0.0014272
0.00148602
0.00154327
0.00159756
0.00165067
0.00170139
0.00175007
0.00179754
0.00184193
0.00188505
0.00192634
0.00196519
0.0020028
0.00203802
0.00207141
0.00210358
0.00213284
0.00216084
0.00218717
0.00221103
0.00223367
0.00225421
0.00227276
0.00229008
0.00230486
0.00231814
0.00232996
0.00233921
0.00234762
0.00235322
0.00235777
0.00236011
0.00236088
0.00235989
0.00235685
0.00235247
0.00234571
0.00233784
0.00232742
0.00231597
0.00230197
0.00228684
0.00226937
0.00225046
0.00222956
0.00220681
0.00218256
0.00215588
0.00212833
0.00209765
0.00206681
0.00203207
0.00199733
0.00195911
0.00192024
0.00187871
0.00183563
0.0017908
0.00174343
0.00169533
0.00164358
0.00159184
0.00153601
0.00147979
0.00142065
0.00135987
0.00129734
0.00123197
0.0011659
0.00109592
0.00102595
0.00095157
0.000877054
0.000838126
0.000798672
0.000759217
0.000719763
0.000678571
0.000637048
0.000595526
0.000553473
0.000510057
0.000466642
0.000423025
0.000377936
0.000332848
0.000287139
0.000240643
0.000193834
0.000146225
9.80772e-05
7.38432e-05
4.93586e-05
2.47595e-05
0
)

)


10
(

113
(
0
0.00208602
0.00497463
0.00827689
0.0118461
0.0156298
0.0195907
0.0237003
0.0279373
0.0322911
0.0367531
0.0413118
0.045959
0.0506852
0.0554743
0.0603248
0.0652175
0.0701207
0.0750146
0.0798748
0.0846718
0.0893721
0.0939399
0.0982933
0.102414
0.106271
0.109818
0.113023
0.115857
0.118289
0.120294
0.121849
0.122957
0.123588
0.123747
0.123417
0.122642
0.12145
0.119913
0.11811
0.116132
0.114104
0.112101
0.110202
0.108403
0.1067
0.105078
0.103515
0.101978
0.100446
0.0989126
0.0973621
0.0957846
0.0941722
0.0925184
0.0908032
0.089028
0.0871937
0.0852997
0.0833207
0.0812683
0.0791601
0.0769898
0.0747491
0.0724749
0.0701624
0.0678173
0.065461
0.0630901
0.0607189
0.0583474
0.0559898
0.0536385
0.0513046
0.0489861
0.0466827
0.0444066
0.0421412
0.0399127
0.0376912
0.0355096
0.0333386
0.0312025
0.0290849
0.0269964
0.0249361
0.0228984
0.0209009
0.0189169
0.0169917
0.0150868
0.014158
0.0132292
0.0123134
0.0114213
0.0105292
0.00965054
0.00879975
0.00794896
0.00712297
0.00631809
0.00551518
0.00476202
0.00400887
0.00330368
0.0026073
0.00197037
0.00136585
0.000815163
0.000561397
0.000336875
0.000141107
0
)


113
(
0
0.00242024
0.0054073
0.00874439
0.0123309
0.0161241
0.0200906
0.0242056
0.0284484
0.0328018
0.0372511
0.041782
0.0463802
0.0510316
0.0557207
0.0604298
0.0651333
0.069806
0.074424
0.0789618
0.0833918
0.0876857
0.0918123
0.0957059
0.0993652
0.102763
0.105872
0.108672
0.11114
0.11326
0.115023
0.116419
0.117451
0.118125
0.118451
0.118446
0.118137
0.117558
0.116743
0.115724
0.114529
0.113199
0.111761
0.110241
0.108666
0.107056
0.105422
0.103772
0.102111
0.100441
0.0987621
0.0970694
0.095359
0.0936265
0.0918683
0.0900698
0.0882317
0.0863551
0.0844399
0.0824701
0.0804518
0.0783959
0.0762974
0.0741464
0.0719681
0.0697573
0.0675106
0.0652491
0.062965
0.0606695
0.0583675
0.0560609
0.053756
0.0514566
0.0491662
0.0468848
0.0446228
0.0423683
0.0401447
0.0379271
0.035746
0.0335749
0.0314374
0.0293182
0.0272281
0.0251662
0.0231271
0.0211297
0.0191461
0.0172223
0.0153185
0.01439
0.0134615
0.012546
0.0116541
0.0107623
0.00988372
0.0090325
0.00818129
0.00735426
0.00654784
0.00574329
0.00498596
0.00422864
0.00351627
0.00281216
0.00216315
0.00153992
0.000960835
0.000689564
0.000440618
0.000211696
0
)


113
(
0
0.00302183
0.00625156
0.0097565
0.0134398
0.0172916
0.0213019
0.0253747
0.0295134
0.0337057
0.0379231
0.0421594
0.0464048
0.0506398
0.0548447
0.0589981
0.063073
0.0670567
0.0709346
0.0746899
0.0783067
0.0817711
0.0850665
0.0881521
0.0910422
0.0937296
0.0962049
0.0984614
0.100495
0.102301
0.103877
0.105226
0.10635
0.107248
0.107932
0.108398
0.108663
0.108738
0.108628
0.10835
0.107911
0.107311
0.106575
0.105712
0.104724
0.10363
0.102441
0.101157
0.099789
0.098339
0.0968237
0.0952477
0.0936149
0.0919303
0.0902002
0.0884172
0.0865931
0.0847341
0.0828432
0.0809112
0.0789465
0.0769574
0.0749417
0.0728926
0.0708259
0.0687377
0.066624
0.0644988
0.0623542
0.0601968
0.0580319
0.0558529
0.0536713
0.0514838
0.0492959
0.0471078
0.0449247
0.0427436
0.0405761
0.0384116
0.0362681
0.0341317
0.0320189
0.0299204
0.0278447
0.0257937
0.0237626
0.0217696
0.0197892
0.0178671
0.0159655
0.0150385
0.0141115
0.013196
0.0123012
0.0114064
0.0105218
0.00965819
0.00879458
0.00794885
0.00711837
0.00628978
0.00550914
0.00472851
0.0039827
0.00324327
0.00254403
0.00186612
0.001223
0.000914871
0.000620587
0.000326566
0
)


113
(
0
0.00363353
0.00700063
0.0105059
0.014125
0.0178215
0.0215642
0.0253293
0.0290984
0.0328559
0.036588
0.0402826
0.0439631
0.0476339
0.0512318
0.0546984
0.0580553
0.0613012
0.064407
0.0673948
0.0702707
0.0729972
0.0755981
0.078043
0.0803631
0.0825317
0.0845505
0.0864247
0.0881498
0.08972
0.0911379
0.0924036
0.0935192
0.0944808
0.0952931
0.0959555
0.0964728
0.0968488
0.0970876
0.0971948
0.0971679
0.0970152
0.0967389
0.0963425
0.0958385
0.095221
0.0945043
0.0936913
0.0927752
0.0917669
0.0906764
0.0895075
0.0882627
0.0869471
0.0855691
0.0841166
0.0826035
0.081039
0.0794275
0.0777575
0.0760425
0.0742931
0.0725047
0.0706718
0.0688142
0.0669264
0.0650046
0.0630673
0.0611041
0.0591207
0.0571257
0.0551083
0.0530856
0.0510495
0.0490083
0.0469621
0.0449088
0.0428527
0.0408038
0.0387556
0.0367067
0.034664
0.0326416
0.0306217
0.0286058
0.0265942
0.024586
0.0225917
0.0206022
0.0186884
0.0167889
0.0158555
0.0149221
0.0139977
0.0130898
0.0121819
0.011283
0.0104026
0.00952212
0.00865748
0.0078063
0.00695631
0.00613679
0.00531728
0.00452732
0.00374278
0.00299306
0.00225727
0.00153732
0.00117946
0.000813113
0.000428209
0
)


113
(
0
0.0038614
0.00721222
0.0104567
0.0136971
0.0169497
0.0202064
0.0234517
0.02667
0.0298483
0.0329765
0.036047
0.0390535
0.0419906
0.0448538
0.0476327
0.0503176
0.0529152
0.0554223
0.0578363
0.0601543
0.0623738
0.064492
0.0664909
0.0684218
0.0703508
0.0721776
0.0738397
0.0753512
0.0767408
0.0779961
0.0791027
0.0801377
0.0810539
0.0818509
0.0825043
0.0830845
0.0835563
0.0839042
0.084171
0.0843387
0.084407
0.0843674
0.0842474
0.0840368
0.0837379
0.0833561
0.0828886
0.0823404
0.0817103
0.0810041
0.0802265
0.0793803
0.0784681
0.0774934
0.0764447
0.0753371
0.0741761
0.0729644
0.0716857
0.0703588
0.068991
0.0675732
0.0660943
0.0645904
0.0630593
0.0614626
0.059845
0.0582032
0.0565129
0.0547945
0.0530289
0.0512432
0.0494035
0.0475407
0.0456553
0.0437686
0.0418815
0.040006
0.0381306
0.0362421
0.0343518
0.0324557
0.0305592
0.0286621
0.026768
0.0248763
0.0229934
0.0211133
0.019251
0.0173959
0.0164768
0.0155578
0.0146442
0.0137407
0.0128372
0.0119401
0.011056
0.010172
0.00930049
0.00843968
0.00757981
0.00674382
0.00590782
0.00508982
0.00427503
0.00346986
0.00266022
0.00183585
0.00141366
0.000970298
0.000504022
0
)


113
(
0
0.00359323
0.00670264
0.00957559
0.0123362
0.015028
0.0176719
0.020276
0.0228412
0.0253649
0.0278432
0.0302719
0.0326473
0.0349656
0.0372237
0.0394141
0.0415297
0.0435767
0.0455535
0.0474588
0.0492913
0.0510497
0.0527328
0.0543282
0.0558478
0.057291
0.0586573
0.0599467
0.0611588
0.0622936
0.0633512
0.0643319
0.0652359
0.0660602
0.066742
0.0674149
0.0680137
0.0685399
0.0689943
0.0693782
0.0696928
0.0699371
0.0701137
0.0703473
0.0712624
0.0714793
0.0715311
0.0714877
0.0712945
0.0709981
0.0705959
0.0700904
0.0694899
0.0688008
0.0680249
0.0671088
0.0661007
0.0646941
0.062985
0.0620725
0.0611091
0.0601065
0.0590595
0.0579551
0.0568186
0.0556426
0.0545127
0.0533417
0.0520281
0.0506803
0.0493127
0.0478951
0.0464632
0.0449946
0.0435028
0.0419881
0.040443
0.038886
0.0372942
0.0356963
0.0340673
0.0324317
0.0307741
0.0291077
0.0274273
0.0257376
0.0240406
0.0223365
0.02063
0.0189219
0.0172156
0.0163647
0.0155138
0.0146653
0.013821
0.0129768
0.0121354
0.0112997
0.0104641
0.0096326
0.00880456
0.00797659
0.00715068
0.00632476
0.00549188
0.00465761
0.00380146
0.00292668
0.0020177
0.00154775
0.00105461
0.00054144
0
)


113
(
0
0.00295504
0.00557437
0.00796651
0.0102165
0.0123588
0.014417
0.0164078
0.0183422
0.0202271
0.0220665
0.0238627
0.0256166
0.0273286
0.0289985
0.0306226
0.0321973
0.0337273
0.0352119
0.0366503
0.0380419
0.0393858
0.0406815
0.041615
0.0427259
0.043821
0.0448628
0.0458511
0.0467856
0.047666
0.0484921
0.0492639
0.0499813
0.0506445
0.0512535
0.0518073
0.0523074
0.0527547
0.0531493
0.0534917
0.0537823
0.0540199
0.0542057
0.054341
0.0544265
0.0544626
0.05445
0.0543895
0.0542783
0.0541179
0.0539111
0.0536584
0.0533612
0.0530209
0.052639
0.0522047
0.0517274
0.0512115
0.0506589
0.0500575
0.0494141
0.048738
0.0480245
0.0472618
0.046471
0.0456456
0.0447734
0.0438783
0.0429424
0.0419722
0.0409821
0.0399407
0.0388844
0.0377894
0.0366693
0.0355245
0.0343455
0.0331532
0.0320413
0.0309223
0.0296188
0.0283079
0.0269724
0.025626
0.0242624
0.0228854
0.0214978
0.0200953
0.0186879
0.0172642
0.0158361
0.0151168
0.0143975
0.0136754
0.0129481
0.0122208
0.0114901
0.0107522
0.0100142
0.00926787
0.00851431
0.00775988
0.00698348
0.00620708
0.00540404
0.00459606
0.00374939
0.00288018
0.00197394
0.00150624
0.00101985
0.000519174
0
)


113
(
0
0.00209379
0.00400934
0.00577768
0.00743785
0.00900498
0.0104914
0.0119082
0.0132646
0.0145677
0.0158231
0.0170352
0.018207
0.0193411
0.0204392
0.0215004
0.0225239
0.0235148
0.0244735
0.0254003
0.0262953
0.0271586
0.02799
0.0287847
0.0295477
0.030279
0.0309782
0.0316452
0.0322799
0.0328821
0.0334516
0.0339883
0.034492
0.0349627
0.0354003
0.035804
0.0361746
0.0365124
0.0368175
0.0370898
0.0373295
0.0375358
0.0377091
0.0378501
0.037959
0.0380361
0.0380816
0.0380958
0.0380766
0.038025
0.0379425
0.0378294
0.0376863
0.0375142
0.0373137
0.0370774
0.0368115
0.0365189
0.0362008
0.0358484
0.0354664
0.0350612
0.0346292
0.0341619
0.0336742
0.0331614
0.0326142
0.03205
0.0314556
0.0308353
0.0302001
0.0295259
0.02884
0.0281242
0.0273886
0.0266334
0.0258504
0.0250566
0.0242287
0.0233945
0.0225267
0.0216507
0.0207474
0.0198307
0.0188928
0.0179359
0.0169637
0.0159655
0.0149586
0.0139157
0.012861
0.0123197
0.0117785
0.0112295
0.0106663
0.0101031
0.00953169
0.00894342
0.00835515
0.0077514
0.00713444
0.00651627
0.00586705
0.00521784
0.00453884
0.00385438
0.00313439
0.00239679
0.00163173
0.00123922
0.000835051
0.000422607
0
)


113
(
0
0.00111711
0.00217127
0.00316611
0.00411234
0.00501275
0.00587
0.00668717
0.00746741
0.00821359
0.00892824
0.00961349
0.0102712
0.0109028
0.0115096
0.0120912
0.0126474
0.0131821
0.013696
0.0141896
0.0146635
0.0151181
0.0155539
0.0159683
0.0163649
0.0167439
0.0171055
0.0174499
0.0177774
0.018088
0.0183819
0.0186592
0.0189202
0.0191648
0.0193932
0.0196051
0.0198011
0.0199813
0.0201459
0.0202949
0.0204283
0.0205459
0.0206479
0.0207345
0.020806
0.0208624
0.0209038
0.0209303
0.0209409
0.0209359
0.0209162
0.0208818
0.0208329
0.0207698
0.020693
0.0205987
0.0204897
0.0203674
0.0202324
0.0200802
0.0199129
0.0197337
0.0195408
0.0193293
0.019107
0.0188713
0.0186169
0.0183532
0.0180725
0.0177771
0.017473
0.0171458
0.0168114
0.0164585
0.0160928
0.0157143
0.0153169
0.014912
0.0144823
0.0140479
0.0135873
0.0131197
0.0126294
0.012127
0.0116055
0.0110659
0.0105116
0.00993146
0.00934266
0.00871763
0.00808092
0.00774892
0.00741693
0.0070777
0.0067254
0.00637309
0.00601391
0.0056405
0.00526709
0.00488205
0.00448712
0.00409137
0.00367507
0.00325877
0.00282507
0.0023882
0.00193289
0.00146932
0.000993305
0.000751018
0.00050404
0.000253896
0
)


113
(
0
9.40032e-05
0.000185691
0.000274972
0.000362106
0.000447053
0.000529777
0.000610285
0.000688604
0.000764774
0.00083884
0.000910838
0.000980805
0.00104877
0.00111475
0.00117863
0.00124033
0.0013001
0.00135796
0.00141393
0.001468
0.0015202
0.00157052
0.00161869
0.00166503
0.00170954
0.00175222
0.00179309
0.00183215
0.0018694
0.00190485
0.0019385
0.00197036
0.00200044
0.00202874
0.00205522
0.00207995
0.00210293
0.00212418
0.00214369
0.00216148
0.00217751
0.00219179
0.00220436
0.00221522
0.0022244
0.00223188
0.00223769
0.0022417
0.00224394
0.00224451
0.00224339
0.00224062
0.00223622
0.00223023
0.00222221
0.00221248
0.0022012
0.00218842
0.00217361
0.002157
0.00213897
0.00211929
0.00209738
0.00207415
0.00204928
0.00202213
0.00199382
0.00196342
0.00193118
0.00189787
0.00186166
0.00182457
0.00178515
0.00174412
0.0017015
0.00165651
0.0016106
0.00156163
0.00151209
0.00145936
0.00140583
0.0013496
0.001292
0.00123223
0.00117049
0.00110717
0.0010412
0.000974339
0.000904029
0.00083269
0.000795823
0.000758956
0.000721509
0.000683013
0.000644517
0.00060552
0.000565487
0.000525455
0.000484657
0.000443207
0.000401709
0.000358986
0.000316262
0.000272594
0.000228755
0.000183996
0.000138855
9.31489e-05
7.01094e-05
4.6874e-05
2.3511e-05
0
)

)


10
(

113
(
0
0.00210237
0.00501231
0.00833053
0.0119014
0.0157452
0.01974
0.0238849
0.0281108
0.0325035
0.0370754
0.0416917
0.046325
0.0510538
0.0555923
0.0604333
0.06535
0.0701154
0.0746833
0.0795167
0.0838769
0.0883
0.0927333
0.0969385
0.100631
0.104
0.107333
0.110667
0.11375
0.11625
0.11875
0.120636
0.121667
0.1225
0.123364
0.123727
0.122818
0.121909
0.121
0.119182
0.117364
0.1154
0.113545
0.1116
0.109727
0.107909
0.105636
0.103333
0.101617
0.0997
0.0978538
0.0958417
0.0937615
0.0917
0.0897
0.0875857
0.0853857
0.0831
0.0809
0.0787063
0.0765188
0.074275
0.0720063
0.0696937
0.0673941
0.0651
0.0629333
0.0607556
0.0585333
0.0562889
0.0540111
0.0518053
0.0496474
0.0474895
0.0453316
0.04326
0.04121
0.03916
0.03711
0.0351
0.0331
0.0311
0.0291
0.0271
0.0251
0.02328
0.02148
0.01955
0.0176222
0.0158444
0.0140706
0.0131882
0.0123059
0.0114369
0.0106212
0.00980563
0.00899
0.00823333
0.00747667
0.00672
0.0059325
0.005145
0.00441545
0.00372455
0.00305444
0.00241556
0.00180429
0.00123817
0.000779
0.0005615
0.000328
0.00014025
0
)


113
(
0
0.00244119
0.00545024
0.00880174
0.0124089
0.0162302
0.0202289
0.0243747
0.0286432
0.0330143
0.0374669
0.0419866
0.0465547
0.051157
0.0557765
0.0603864
0.0649692
0.0695043
0.0739815
0.0783576
0.0825975
0.0867119
0.0906678
0.0944449
0.0980159
0.101328
0.104394
0.107198
0.109724
0.111957
0.113841
0.115379
0.116564
0.117424
0.117967
0.118177
0.118075
0.117683
0.117025
0.116096
0.114967
0.113663
0.112195
0.110608
0.108913
0.107136
0.105293
0.103396
0.101459
0.099491
0.0974883
0.0954598
0.0934101
0.091344
0.0892532
0.0871395
0.08501
0.0828654
0.0806949
0.0785136
0.0763216
0.0741156
0.071905
0.0696869
0.0674664
0.0652447
0.0630273
0.0608123
0.0586069
0.0564091
0.0542225
0.052051
0.0498896
0.0477501
0.04562
0.0435174
0.0414218
0.0393558
0.0372973
0.0352682
0.0332464
0.031255
0.0292713
0.0273188
0.0253743
0.0234689
0.0215678
0.0197104
0.0178635
0.0160675
0.0142913
0.0134263
0.0125613
0.0117035
0.0108749
0.0100463
0.00921765
0.00842929
0.00764094
0.00685259
0.00610664
0.00536068
0.00464324
0.00394481
0.00326799
0.0026236
0.00201273
0.00143384
0.000893419
0.000650807
0.000416118
0.000204279
0
)


113
(
0
0.00304232
0.0062892
0.00980283
0.0134934
0.0173337
0.0213669
0.0254687
0.0295699
0.0337354
0.0379259
0.0421297
0.0463355
0.0505216
0.0546689
0.0587542
0.062769
0.0666934
0.0705228
0.0742215
0.0777571
0.0811583
0.0843986
0.0874676
0.0903497
0.0930042
0.0954601
0.09771
0.0997501
0.10158
0.103162
0.104518
0.10564
0.106551
0.107255
0.107742
0.108029
0.108108
0.107999
0.107698
0.107212
0.106578
0.105782
0.104846
0.103775
0.102587
0.101284
0.0998731
0.0983748
0.096796
0.0951277
0.0933941
0.0915992
0.0897583
0.0878669
0.0859243
0.0839529
0.0819574
0.0799115
0.0778532
0.0757826
0.0736877
0.0715846
0.0694688
0.0673425
0.0652115
0.0630767
0.0609419
0.0588071
0.056676
0.0545504
0.0524282
0.0503082
0.0482032
0.0461046
0.0440226
0.0419449
0.039889
0.0378385
0.0358137
0.0337953
0.0318055
0.0298227
0.0278726
0.0259305
0.0240292
0.0221324
0.0202822
0.0184425
0.0166507
0.0148787
0.0140159
0.013153
0.0122967
0.0114661
0.0106356
0.00980505
0.00900343
0.00820182
0.0074002
0.0066359
0.0058716
0.0051342
0.00441474
0.00371106
0.00303107
0.00237416
0.00174088
0.0011406
0.000859934
0.000582623
0.000307089
0
)


113
(
0
0.00363735
0.00701054
0.0105102
0.0141225
0.017812
0.0215454
0.0252975
0.0290496
0.0327865
0.0364959
0.040165
0.0438131
0.0474654
0.0510254
0.0544697
0.0577935
0.0609873
0.0640658
0.0670372
0.0698458
0.0725484
0.0751184
0.0775428
0.079828
0.0819608
0.0839442
0.0857774
0.0874674
0.0890216
0.0904001
0.0916134
0.0926758
0.0935899
0.0943632
0.0949893
0.0954637
0.0957945
0.0959944
0.0960388
0.0959492
0.0957471
0.0954035
0.0949457
0.0943681
0.093688
0.0929056
0.0920169
0.0910323
0.0899546
0.0887877
0.0875428
0.0862236
0.0848429
0.0833809
0.0818567
0.0802865
0.0786708
0.07697
0.0752468
0.0735012
0.0716996
0.069872
0.0679981
0.0661029
0.0641986
0.0622745
0.0603387
0.0583558
0.0563746
0.0543962
0.052406
0.050408
0.0484141
0.0464221
0.0444328
0.0424442
0.0404558
0.0384674
0.036502
0.0345423
0.0325953
0.0306514
0.0287287
0.0268113
0.0249236
0.0230393
0.0211531
0.0192755
0.0174768
0.0156929
0.0148184
0.0139438
0.0130747
0.012227
0.0113793
0.0105317
0.00971295
0.00889425
0.00807554
0.00728638
0.00649721
0.00572663
0.00496844
0.00422393
0.00349994
0.0027953
0.00210792
0.00143799
0.00110188
0.000760736
0.000399759
0
)


113
(
0
0.00384811
0.00719351
0.0104286
0.0136566
0.0168953
0.0201367
0.0233645
0.0265626
0.0297186
0.0328241
0.0358698
0.0388526
0.0417657
0.0445913
0.0473336
0.0499913
0.0525603
0.0550477
0.0574266
0.059693
0.06187
0.0639451
0.0659191
0.0677915
0.0696885
0.0714701
0.073088
0.0745499
0.0758968
0.0771068
0.0782209
0.0791802
0.0800169
0.0807548
0.081397
0.0819359
0.0823643
0.0826706
0.08288
0.082993
0.0830187
0.0829357
0.0827639
0.0825025
0.0821556
0.0817283
0.0812211
0.0806328
0.0799536
0.0792049
0.0783918
0.0775065
0.0765602
0.0755482
0.0744544
0.07332
0.0721554
0.0708832
0.069579
0.0682428
0.0668635
0.0654415
0.0639309
0.0624139
0.0608942
0.0592968
0.0576877
0.056032
0.0543482
0.0526225
0.0508788
0.0491229
0.0473307
0.0455228
0.0436674
0.0418002
0.0399726
0.0381549
0.0363292
0.0345014
0.0326716
0.0308413
0.0290145
0.0271886
0.0253728
0.0235582
0.0217592
0.0199643
0.0181901
0.0164247
0.0155522
0.0146797
0.0138109
0.0129564
0.0121019
0.0112475
0.0104153
0.00958305
0.00875083
0.0079434
0.00713597
0.00634324
0.00556032
0.0047852
0.00402179
0.00326196
0.00250164
0.00172977
0.0013252
0.000911992
0.000472639
0
)


113
(
0
0.00356737
0.00665841
0.0095174
0.0122611
0.0149322
0.0175537
0.0201342
0.0226746
0.0251723
0.0276247
0.0300261
0.0323751
0.0346671
0.0368883
0.0390426
0.0411301
0.043148
0.0451025
0.0469738
0.0487602
0.0504798
0.052124
0.053693
0.0551842
0.0565874
0.057915
0.0591676
0.0603451
0.0614477
0.0624666
0.0634056
0.0642655
0.0650011
0.0656646
0.0663024
0.0668672
0.06736
0.0677818
0.0681261
0.0684019
0.0686133
0.0687549
0.068835
0.0695621
0.0700275
0.0700579
0.0699629
0.0697576
0.0694447
0.0690096
0.0684759
0.0678469
0.0671418
0.0663454
0.0653965
0.0640635
0.0622118
0.0613288
0.0604088
0.0594519
0.0584299
0.0573801
0.0562824
0.0551384
0.0539744
0.0528299
0.051653
0.0503465
0.0490184
0.0476578
0.0462665
0.0448547
0.0434095
0.04195
0.0404555
0.0389523
0.0374176
0.0358751
0.0343057
0.0327297
0.0311316
0.0295281
0.0279079
0.0262836
0.0246467
0.0230083
0.0213642
0.0197196
0.0180765
0.0164364
0.0156199