/*--------------------------------*- C++ -*----------------------------------*\
| =========                 |                                                 |
| \\      /  F ield         | OpenFOAM: The Open Source CFD Toolbox           |
|  \\    /   O peration     | Version:  2.3.0                                 |
|   \\  /    A nd           | Web:      www.OpenFOAM.org                      |
|    \\/     M anipulation  |                                                 |
\*---------------------------------------------------------------------------*/
FoamFile
{
    version     2.0;
    format      ascii;
    class       dictionary;
    location    "constant";
    object      CO;
}
// * * * * * * * * * * * * * * * * * * * * * * * * * * * * * * * * * * * * * //

CO_table
13
(

10
(

113
(
0
5.75542e-07
1.18807e-06
1.8443e-06
2.52605e-06
3.24786e-06
4.03357e-06
4.91905e-06
5.92738e-06
7.07033e-06
8.64649e-06
1.07615e-05
1.33e-05
1.81428e-05
2.49981e-05
3.47497e-05
5.31417e-05
7.7539e-05
0.00012071
0.000189123
0.00027992
0.000450341
0.00067079
0.00100844
0.00150531
0.00209888
0.00304298
0.00417298
0.0055705
0.00740975
0.00946844
0.0119372
0.0147799
0.0178692
0.0213283
0.0249329
0.0287304
0.0326892
0.0366766
0.0406639
0.0445369
0.0483099
0.0517261
0.0548353
0.0576497
0.0600422
0.0623089
0.0642084
0.0659843
0.0674978
0.0689283
0.0702652
0.0714875
0.0726333
0.0736904
0.0747056
0.0756678
0.0766084
0.0775
0.0783696
0.0791724
0.0799343
0.0806402
0.0812944
0.0818935
0.0824028
0.0828606
0.0831358
0.0833964
0.0833055
0.0832145
0.0825919
0.0818679
0.0806635
0.079177
0.0773665
0.0750897
0.0727111
0.069835
0.0669588
0.0637736
0.0605577
0.0572761
0.0539575
0.050622
0.0472587
0.0439046
0.0406018
0.0372991
0.034044
0.0307904
0.0291592
0.0275265
0.0258939
0.0242612
0.0226551
0.0210539
0.0194528
0.017857
0.0162747
0.0146924
0.013116
0.0115824
0.0100488
0.00853
0.00703
0.0055421
0.00408531
0.00265893
0.00195457
0.00126171
0.000606905
0
)


113
(
0
5.9836e-07
1.24607e-06
1.94634e-06
2.73553e-06
3.66173e-06
4.83096e-06
6.57565e-06
9.16149e-06
1.26956e-05
1.93846e-05
3.00847e-05
4.39365e-05
7.22688e-05
0.000111729
0.000167202
0.000260914
0.000377567
0.00055955
0.000804708
0.00110589
0.00155946
0.00208819
0.00278264
0.00365504
0.00463405
0.0059321
0.00737676
0.00903239
0.0109842
0.0130847
0.0154664
0.018043
0.0207493
0.0237073
0.0267416
0.0298771
0.0330853
0.0363036
0.0395147
0.0426606
0.0457568
0.0487019
0.0515275
0.0542383
0.056717
0.0591192
0.0612604
0.0633086
0.0651595
0.0668866
0.0684742
0.0699265
0.0712886
0.0725205
0.073691
0.0747449
0.075751
0.0766528
0.0775077
0.0782651
0.0789628
0.0795649
0.0800787
0.080503
0.0807813
0.0809919
0.0809621
0.0809166
0.0804925
0.0800684
0.0792444
0.0783443
0.0771129
0.0756868
0.0740414
0.0720803
0.0700374
0.0675948
0.0651523
0.0623644
0.0595423
0.0565559
0.0534771
0.0503466
0.0471315
0.043909
0.0406441
0.0373792
0.0341144
0.0308495
0.0292265
0.0276066
0.0259866
0.0243666
0.0227636
0.0211637
0.0195639
0.0179715
0.0163981
0.0148248
0.0132554
0.0117148
0.0101742
0.00865028
0.00714764
0.00565581
0.00419179
0.00274966
0.0020362
0.00134531
0.000674632
0
)


113
(
0
3.03402e-06
8.45887e-06
1.80012e-05
3.30644e-05
5.54864e-05
8.87068e-05
0.000138852
0.000206008
0.000289725
0.000410509
0.000562893
0.000740106
0.000993788
0.00128623
0.00163446
0.00207386
0.00255922
0.00315769
0.00383937
0.00459485
0.00550505
0.00647975
0.00758912
0.00881782
0.0101174
0.0116001
0.0131582
0.0148247
0.0166235
0.0184875
0.0204729
0.0225366
0.0246525
0.026868
0.0291158
0.0314063
0.0337331
0.0360708
0.0384208
0.040757
0.0430819
0.0453692
0.0476201
0.0498358
0.051965
0.054064
0.0560521
0.0579918
0.059829
0.0615836
0.063245
0.0647966
0.0662751
0.0676158
0.0688917
0.0700143
0.0710743
0.0719717
0.0727959
0.0734665
0.0740429
0.0744815
0.074793
0.074996
0.0750223
0.0749814
0.0747028
0.0744111
0.0738063
0.0732015
0.0723123
0.071369
0.0702065
0.0689153
0.0674822
0.0658449
0.0641512
0.0621825
0.0602137
0.0579604
0.055679
0.0532283
0.0506824
0.048053
0.0452875
0.0424975
0.0395683
0.0366392
0.0336159
0.0305896
0.0290526
0.0275081
0.0259635
0.024419
0.0228656
0.0213106
0.0197556
0.0181953
0.0166212
0.0150471
0.0134775
0.0119407
0.0104038
0.0088771
0.00736317
0.00585863
0.0043782
0.00293167
0.00221853
0.00152133
0.000809291
0
)


113
(
0
7.09243e-05
0.000156773
0.000269311
0.000410248
0.000581583
0.000788826
0.00104209
0.00133317
0.00165894
0.00205141
0.0024894
0.00296317
0.0035372
0.00414803
0.0048118
0.00555854
0.00634378
0.00721578
0.00814378
0.00912142
0.0101923
0.0113008
0.0124864
0.0137363
0.0150244
0.0164063
0.0178228
0.0192892
0.0208156
0.0223717
0.0239832
0.0256242
0.0272848
0.0289911
0.0307084
0.0324404
0.0341842
0.0359306
0.037678
0.0394181
0.041151
0.0428552
0.0445393
0.0462042
0.047814
0.0494048
0.050926
0.0524178
0.0538473
0.0552154
0.0565145
0.057738
0.0589111
0.0599778
0.0609946
0.0618866
0.0627277
0.0634332
0.0640777
0.0645931
0.0650294
0.065349
0.065561
0.0656824
0.0656561
0.065574
0.0652939
0.0650036
0.0644704
0.0639372
0.0631829
0.0623864
0.061423
0.0603615
0.0591937
0.0578729
0.0565098
0.0549397
0.0533697
0.051559
0.0497245
0.0477604
0.0457234
0.0435812
0.0412672
0.0389232
0.0364094
0.0338956
0.0312776
0.0286562
0.0272994
0.025928
0.0245566
0.0231851
0.0217766
0.0203611
0.0189455
0.0175222
0.016079
0.0146358
0.0131916
0.0117398
0.010288
0.0088424
0.00740457
0.00597323
0.00455859
0.0031389
0.00242488
0.00167783
0.00088862
0
)


113
(
0
0.000301505
0.000601032
0.000928737
0.00129177
0.00169253
0.00213568
0.00262804
0.00315733
0.00371946
0.00433937
0.00499519
0.00567923
0.00642844
0.00720433
0.00801862
0.00888421
0.00977322
0.0107139
0.011686
0.0126859
0.0137356
0.014804
0.0159101
0.0170642
0.0182462
0.0194704
0.0206994
0.0219352
0.0231978
0.0244691
0.0257478
0.0270314
0.0283183
0.0296153
0.0309073
0.0321927
0.0334749
0.0347511
0.0360124
0.037254
0.0384832
0.0396861
0.0408673
0.0420275
0.043145
0.0442474
0.0452943
0.0463175
0.0472903
0.0482193
0.0490987
0.0499227
0.0507097
0.0514224
0.0521001
0.052686
0.0532343
0.0536902
0.0541044
0.0544257
0.0546899
0.0548697
0.0549714
0.0550067
0.0549334
0.0548241
0.054587
0.0543415
0.0538931
0.0534448
0.0528061
0.0521313
0.0513411
0.0504833
0.0495196
0.0484035
0.0472659
0.046023
0.0447801
0.0433564
0.0419148
0.0403491
0.0387137
0.0370079
0.0351872
0.0333406
0.0313468
0.0293531
0.0272074
0.025057
0.0239308
0.0227885
0.0216462
0.0205039
0.019318
0.0181237
0.0169294
0.0157257
0.0144976
0.0132696
0.0120393
0.0107933
0.00954723
0.00829383
0.00703109
0.0057571
0.00445417
0.00309733
0.00240046
0.00165102
0.00086179
0
)


113
(
0
0.000599626
0.00115851
0.00171278
0.00227943
0.00286538
0.00347663
0.00411934
0.0047857
0.00547299
0.0061959
0.00693961
0.00769968
0.00849482
0.00930324
0.0101308
0.0109819
0.0118434
0.0127267
0.0136222
0.0145284
0.015452
0.0163816
0.0173228
0.0182716
0.019225
0.0201863
0.0211494
0.0221151
0.0230812
0.0240467
0.0250096
0.0259682
0.0269235
0.0278546
0.0287853
0.0297156
0.0306301
0.0315358
0.0324253
0.0332969
0.0341571
0.0349911
0.035956
0.0370466
0.0379465
0.0388
0.0395723
0.0403106
0.0409764
0.0415892
0.0421421
0.0426217
0.0430525
0.0433923
0.0436892
0.043583
0.0433121
0.0433632
0.0435589
0.0436893
0.0437796
0.0438114
0.0437892
0.0437216
0.04358
0.0434238
0.0432159
0.043
0.0425919
0.0421837
0.0416641
0.0411232
0.0404959
0.0398179
0.0390822
0.0382634
0.03742
0.036457
0.0354941
0.0343981
0.033289
0.0320866
0.0308318
0.0295229
0.0281259
0.0267086
0.0251766
0.0236447
0.0219938
0.0203392
0.0194718
0.0185918
0.0177117
0.0168316
0.0159148
0.014991
0.0140672
0.0131327
0.0121707
0.0112087
0.0102417
0.00923819
0.00823473
0.00720652
0.00614682
0.00506501
0.00392633
0.0027233
0.00210129
0.00143412
0.000739398
0
)


113
(
0
0.000798243
0.00153582
0.00223761
0.00292242
0.00359921
0.00427384
0.00495197
0.00563483
0.0063224
0.00701981
0.00772351
0.00843215
0.00915147
0.00987459
0.0106032
0.0113377
0.0120746
0.0128159
0.0135588
0.0143031
0.0150481
0.0157678
0.0164154
0.0171096
0.0178299
0.0185414
0.0192483
0.0199486
0.0206379
0.0213213
0.0219921
0.0226518
0.0233041
0.0239364
0.0245591
0.0251689
0.0257578
0.0263358
0.0268943
0.0274328
0.0279587
0.028457
0.0289377
0.0294015
0.0298333
0.0302543
0.0306379
0.0310068
0.0313443
0.0316583
0.0319459
0.0322014
0.0324354
0.0326301
0.0328062
0.0329381
0.033052
0.0331197
0.0331667
0.0331697
0.0331456
0.0330824
0.0329831
0.0328537
0.0326752
0.0324786
0.0322175
0.031953
0.031606
0.031259
0.0308375
0.0304018
0.0299088
0.029382
0.0288171
0.0281973
0.0275768
0.0269531
0.0263294
0.0255177
0.0246874
0.0237992
0.0228785
0.0219241
0.0209147
0.0198925
0.0187976
0.0177027
0.0165281
0.0153511
0.0147323
0.0141038
0.0134753
0.0128468
0.0121839
0.0115145
0.010845
0.0101628
0.00944765
0.00873254
0.0080109
0.00724133
0.00647175
0.00567338
0.00483834
0.00398262
0.00307375
0.00211626
0.00162249
0.00109992
0.000561786
0
)


113
(
0
0.000788776
0.00152658
0.00222299
0.00288998
0.00353368
0.00415695
0.00476224
0.0053566
0.00594198
0.00651448
0.00708038
0.0076411
0.00819137
0.00873764
0.00927815
0.00981099
0.0103402
0.0108613
0.0113769
0.0118877
0.0123885
0.0128851
0.013373
0.0138527
0.0143275
0.0147889
0.0152443
0.0156909
0.016125
0.0165524
0.0169666
0.0173699
0.017766
0.0181436
0.0185127
0.0188705
0.0192108
0.0195421
0.0198575
0.0201574
0.0204474
0.0207165
0.0209726
0.0212161
0.0214367
0.0216495
0.0218361
0.0220126
0.0221676
0.0223069
0.0224284
0.0225287
0.022615
0.0226759
0.0227249
0.0227458
0.0227554
0.0227362
0.0227042
0.0226452
0.0225697
0.0224706
0.0223498
0.0222112
0.0220434
0.0218651
0.0216491
0.0214311
0.0211656
0.0209001
0.0205921
0.0202761
0.0199278
0.0195605
0.0191718
0.0187524
0.0183239
0.0178515
0.017379
0.0168574
0.016331
0.0157694
0.0151881
0.0145855
0.013948
0.0133019
0.0126064
0.0119109
0.0111558
0.010399
0.00999536
0.00958379
0.00917221
0.00876064
0.00831838
0.00787029
0.00742219
0.00696268
0.00647383
0.00598498
0.00549073
0.00495686
0.00442299
0.00386818
0.00328672
0.00269226
0.00206434
0.00140963
0.00107413
0.000724342
0.000367404
0
)


113
(
0
0.000538563
0.00105171
0.00154067
0.00200965
0.00246067
0.00289379
0.00330846
0.00371045
0.00410152
0.00447497
0.0048384
0.00519396
0.00553267
0.00586488
0.00618772
0.0064985
0.00680382
0.00709717
0.00738321
0.00766276
0.00793031
0.00819316
0.00844643
0.0086916
0.00893198
0.00916016
0.00938328
0.00959913
0.00980521
0.0100063
0.0101977
0.0103817
0.0105606
0.0107275
0.0108891
0.0110437
0.0111876
0.0113264
0.0114559
0.0115767
0.011692
0.0117959
0.0118928
0.0119832
0.0120615
0.012136
0.0121972
0.0122533
0.0122987
0.0123365
0.0123657
0.0123848
0.0123971
0.0123975
0.0123923
0.0123741
0.0123506
0.0123139
0.0122713
0.0122165
0.0121541
0.0120812
0.0119984
0.0119075
0.0118036
0.0116949
0.0115692
0.0114425
0.0112943
0.0111461
0.0109784
0.0108069
0.0106202
0.0104247
0.0102188
0.0099981
0.00977288
0.00952564
0.00927839
0.00900551
0.00873009
0.00843543
0.00812993
0.00781218
0.00747443
0.00713147
0.00675895
0.00638643
0.0059775
0.00556746
0.00534715
0.00512202
0.00489689
0.00467175
0.00442882
0.0041825
0.00393618
0.00368374
0.00341559
0.00314743
0.00287667
0.0025868
0.00229693
0.00199808
0.0016878
0.00137254
0.00104447
0.000707113
0.000535641
0.000359582
0.000181344
0
)


113
(
0
5.48339e-05
0.00010837
0.000160545
0.000211484
0.000261226
0.00030968
0.000356675
0.000402589
0.000447546
0.000490834
0.000533095
0.000574549
0.000614147
0.000652982
0.000690719
0.000726969
0.000762533
0.000796559
0.000829616
0.000861812
0.00089238
0.000922303
0.000950905
0.000978384
0.0010052
0.00103031
0.00105472
0.00107812
0.00110017
0.00112153
0.00114157
0.00116059
0.00117894
0.00119567
0.00121171
0.00122681
0.00124054
0.00125359
0.00126546
0.00127623
0.00128631
0.00129497
0.00130279
0.00130979
0.00131536
0.00132045
0.00132397
0.0013269
0.00132858
0.00132938
0.00132919
0.00132784
0.00132574
0.00132229
0.00131822
0.00131271
0.00130661
0.00129907
0.00129089
0.00128138
0.00127106
0.0012596
0.00124709
0.00123373
0.00121898
0.00120373
0.00118671
0.00116959
0.00115024
0.00113089
0.00110955
0.00108784
0.0010646
0.00104048
0.00101534
0.000988759
0.000961745
0.00093264
0.000903534
0.00087208
0.000840393
0.000807025
0.00077271
0.000737385
0.000700415
0.000663044
0.000623411
0.000583778
0.000541592
0.000499327
0.000477226
0.000454818
0.000432411
0.000410003
0.000386587
0.000362977
0.000339368
0.000315451
0.00029074
0.00026603
0.000241203
0.000215518
0.000189834
0.000163788
0.000137283
0.000110597
8.34426e-05
5.59751e-05
4.21478e-05
2.81743e-05
1.41339e-05
0
)

)


10
(

113
(
0
7.04777e-06
1.46101e-05
2.2482e-05
3.06227e-05
3.90599e-05
4.78645e-05
5.71645e-05
6.71981e-05
7.83736e-05
9.13545e-05
0.000107167
0.000127338
0.000154024
0.000190109
0.00024096
0.000315395
0.000419598
0.00056332
0.000758255
0.00101807
0.0013584
0.00179742
0.00237531
0.0030951
0.00397638
0.00503628
0.00629142
0.00775735
0.00944643
0.0113676
0.0135288
0.0159412
0.018604
0.0215256
0.0247041
0.0281303
0.0317696
0.0355843
0.0394919
0.0433737
0.0470585
0.0504047
0.0533521
0.0559045
0.0581099
0.0600257
0.0617068
0.0631818
0.0644874
0.0656478
0.0666713
0.067562
0.0683202
0.0689457
0.0693871
0.0696589
0.0697661
0.0697078
0.0694096
0.0688906
0.068198
0.0673058
0.0661647
0.0648958
0.0634754
0.0618952
0.0602501
0.0585053
0.0567075
0.0548788
0.0530067
0.0511275
0.0492321
0.0473337
0.0454325
0.043534
0.0416367
0.0397457
0.037856
0.0359741
0.0340944
0.0322218
0.0303525
0.0284884
0.0266288
0.024773
0.0229224
0.0210736
0.019235
0.0173996
0.0164856
0.0155716
0.0146601
0.0137532
0.0128463
0.0119421
0.0110435
0.0101449
0.00925161
0.00836292
0.00747474
0.00659954
0.00572433
0.00486233
0.00400276
0.00316081
0.0023293
0.00151597
0.00111699
0.000727941
0.000351482
0
)


113
(
0
7.28237e-06
1.50367e-05
2.31704e-05
3.18038e-05
4.11781e-05
5.17099e-05
6.41309e-05
7.95774e-05
9.96261e-05
0.000126509
0.000163134
0.000213165
0.000281146
0.000372466
0.000496447
0.000666082
0.000887147
0.00117012
0.00152647
0.00196862
0.00250977
0.00316398
0.00396742
0.00491394
0.00601628
0.00728576
0.00873115
0.0103607
0.0121793
0.0141866
0.0163817
0.018755
0.0212941
0.0239817
0.0267938
0.029701
0.0326692
0.0356616
0.0386434
0.0415831
0.0444371
0.0471774
0.0497821
0.0522279
0.0544986
0.0565862
0.0584856
0.060181
0.0616742
0.0629786
0.064097
0.0650364
0.0658031
0.0664031
0.066793
0.0670096
0.0670695
0.0669797
0.0666892
0.066226
0.0656294
0.0648814
0.0639414
0.0628975
0.061728
0.0604049
0.0590127
0.0575051
0.0559176
0.0542838
0.0525576
0.0508108
0.0490135
0.0471945
0.045354
0.0434964
0.0416321
0.0397585
0.0378839
0.0360081
0.0341333
0.0322616
0.0303924
0.0285273
0.0266667
0.0248097
0.0229596
0.0211119
0.0192744
0.0174405
0.0165277
0.015615
0.0147048
0.0137991
0.0128935
0.0119907
0.0110936
0.0101966
0.00930521
0.00841859
0.00753245
0.00665851
0.00578456
0.00492356
0.00406494
0.00322408
0.0023887
0.00156666
0.00116313
0.000768181
0.000384952
0
)


113
(
0
1.18966e-05
2.75097e-05
4.94683e-05
7.91364e-05
0.000119357
0.000173956
0.000246137
0.000340427
0.000461132
0.000614028
0.000804295
0.00103692
0.00131763
0.00165263
0.00205187
0.0025273
0.00307712
0.00370667
0.00442106
0.00522501
0.00612274
0.00711838
0.00823007
0.00944289
0.0107561
0.0121693
0.0136809
0.0152869
0.0169827
0.0187632
0.0206189
0.0225425
0.0245254
0.0265537
0.0286196
0.0307075
0.0328058
0.0349042
0.0369835
0.0390365
0.0410509
0.0430072
0.0449
0.0467177
0.0484514
0.050087
0.0516213
0.0530379
0.0543306
0.0554979
0.056535
0.0574423
0.0582198
0.0588676
0.0593476
0.059688
0.0599018
0.0599947
0.0599264
0.0597191
0.0594044
0.0589677
0.0583744
0.0576939
0.0569069
0.0559823
0.0549924
0.0538892
0.0526974
0.0514541
0.0500893
0.0486921
0.0472122
0.0456853
0.0441119
0.042482
0.0408301
0.0391225
0.0374059
0.0356466
0.0338801
0.0320892
0.0302903
0.0284789
0.0266617
0.0248398
0.0230154
0.0211902
0.0193709
0.0175554
0.0166523
0.0157492
0.0148475
0.0139484
0.0130494
0.0121507
0.0112528
0.0103549
0.00945762
0.00856079
0.00766479
0.00678933
0.00591388
0.00504787
0.00418361
0.00333221
0.0024904
0.00166643
0.00126245
0.000865936
0.000461496
0
)


113
(
0
8.65462e-05
0.000187594
0.000316976
0.000475458
0.000666419
0.000893421
0.00115973
0.00146827
0.00182154
0.00222175
0.00267081
0.00317382
0.00373367
0.0043464
0.00501498
0.00574456
0.00653159
0.00737082
0.00826607
0.00921892
0.0102233
0.0112827
0.0124008
0.0135704
0.0147856
0.0160447
0.0173458
0.0186841
0.0200541
0.0214519
0.0228745
0.024318
0.0257762
0.0272399
0.0287104
0.0301739
0.03163
0.0330703
0.0344891
0.0358866
0.037246
0.0385693
0.0398502
0.0410829
0.042262
0.0433844
0.0444465
0.0454368
0.0463551
0.0471976
0.0479613
0.0486471
0.0492543
0.0497807
0.0502013
0.0505341
0.0507853
0.0509568
0.0510191
0.050985
0.0508752
0.0506786
0.0503657
0.0499864
0.0495255
0.0489528
0.0483254
0.0476013
0.046797
0.0459462
0.0449766
0.0439731
0.0428824
0.0417371
0.040538
0.039264
0.0379609
0.0365819
0.0351884
0.0337129
0.0322241
0.0306911
0.0291302
0.027525
0.0258828
0.0242108
0.0224988
0.0207735
0.0190567
0.0173347
0.0164675
0.0156002
0.0147312
0.013859
0.0129867
0.012114
0.0112401
0.0103663
0.0094935
0.00862155
0.00774986
0.00688452
0.00601917
0.00516477
0.0043124
0.00347693
0.00264757
0.0018215
0.00140572
0.000973972
0.000515773
0
)


113
(
0
0.000306186
0.000606301
0.00093242
0.00129076
0.00168528
0.00211781
0.0025887
0.0030975
0.00364342
0.00422562
0.00484324
0.00549544
0.00618143
0.00690034
0.00765354
0.00844152
0.00925905
0.0101049
0.0109776
0.0118759
0.0127981
0.0137428
0.0147106
0.0157072
0.016741
0.0177921
0.0188437
0.0198941
0.0209477
0.0219992
0.023042
0.0240918
0.0251326
0.0261659
0.0271785
0.0281854
0.029177
0.0301411
0.0310912
0.0320191
0.0329191
0.0337831
0.0346209
0.035424
0.0361927
0.0369216
0.0376131
0.0382569
0.0388552
0.0394091
0.039914
0.0403695
0.0407757
0.0411328
0.0414249
0.0416629
0.0418476
0.0419799
0.0420435
0.0420501
0.0420063
0.0418996
0.041715
0.041487
0.0412061
0.0408358
0.040427
0.0399558
0.0394132
0.0388293
0.0381442
0.0374239
0.0366113
0.0357453
0.0348269
0.0338519
0.032855
0.031799
0.0307304
0.029582
0.0284149
0.0271856
0.0259274
0.0246234
0.0232819
0.0219103
0.0204938
0.0190623
0.0175797
0.0160842
0.0153214
0.0145587
0.0137903
0.0130116
0.0122329
0.011451
0.0106625
0.00987393
0.00908357
0.00829163
0.00749975
0.00670915
0.00591854
0.00512882
0.0043392
0.0035425
0.00273404
0.00189963
0.00146842
0.00101112
0.000527073
0
)


113
(
0
0.000555167
0.00106765
0.00157324
0.00208726
0.00261703
0.00316656
0.00373744
0.00432973
0.00494264
0.00557496
0.00622538
0.00689256
0.00757522
0.00827209
0.00898281
0.00970645
0.0104402
0.0111829
0.0119334
0.0126906
0.0134533
0.0142202
0.0149904
0.0157621
0.0165339
0.0173047
0.0180731
0.018838
0.0195981
0.020352
0.0210984
0.0218362
0.0225623
0.0232467
0.0239501
0.0246397
0.0253143
0.0259729
0.0266144
0.0272377
0.027841
0.0284238
0.0290335
0.0299162
0.030539
0.0310985
0.0316217
0.0320778
0.0324916
0.0328535
0.033163
0.0334214
0.0336288
0.0337836
0.0338586
0.0338738
0.0336411
0.033213
0.0332253
0.0331963
0.0331344
0.0330342
0.0328813
0.0326973
0.0324747
0.0322637
0.0320146
0.0316504
0.0312436
0.0308122
0.0303139
0.0297952
0.0292236
0.0286156
0.0279719
0.0272757
0.0265593
0.0257768
0.0249822
0.0241212
0.023244
0.0223128
0.0213556
0.0203569
0.019323
0.0182609
0.0171551
0.0160348
0.0148636
0.0136792
0.0130716
0.0124641
0.0118503
0.0112251
0.0105999
0.00997001
0.00933043
0.00869084
0.00804408
0.00739119
0.0067377
0.00606908
0.00540046
0.00471281
0.00402159
0.00329848
0.00255353
0.00177031
0.00136228
0.000930648
0.000479155
0
)


113
(
0
0.000685786
0.00131508
0.00191122
0.00249059
0.00306086
0.00362731
0.00419354
0.0047617
0.00533297
0.00590782
0.00648632
0.00706828
0.00765334
0.00824102
0.00883087
0.00942216
0.010014
0.0106057
0.0111966
0.011786
0.0123734
0.0129581
0.013423
0.0139699
0.0145245
0.015072
0.0156117
0.0161429
0.0166649
0.0171771
0.0176786
0.0181688
0.0186471
0.0191127
0.0195646
0.0200026
0.0204262
0.0208347
0.0212276
0.0216042
0.0219636
0.0223053
0.022629
0.0229343
0.0232208
0.0234878
0.0237351
0.0239607
0.0241644
0.0243467
0.0245071
0.0246457
0.0247623
0.0248573
0.0249238
0.0249661
0.0249861
0.0249843
0.0249526
0.024894
0.024814
0.0247091
0.0245698
0.0244102
0.0242253
0.0240047
0.023766
0.0234946
0.0231942
0.022877
0.0225143
0.0221376
0.0217247
0.0212867
0.0208242
0.0203254
0.0198126
0.019333
0.0188452
0.0182159
0.0175759
0.0169
0.0162066
0.0154853
0.0147399
0.013975
0.0131792
0.012373
0.011528
0.0106717
0.0102302
0.0097887
0.00934051
0.00888018
0.00841985
0.00795296
0.00747253
0.0069921
0.00649932
0.00599601
0.00549168
0.00496126
0.00443085
0.00387302
0.00331013
0.00271088
0.00209159
0.00143983
0.00110144
0.000747299
0.00038128
0
)


113
(
0
0.000636459
0.00122919
0.00178691
0.00231977
0.002832
0.00332707
0.00380798
0.00427713
0.00473639
0.00518712
0.00563032
0.00606671
0.00649679
0.0069209
0.00733886
0.00775046
0.0081564
0.00855662
0.008951
0.00933939
0.00972158
0.0100973
0.0104653
0.0108264
0.0111802
0.0115265
0.0118649
0.0121953
0.0125171
0.0128303
0.0131343
0.013429
0.0137141
0.0139891
0.0142537
0.0145077
0.014751
0.0149833
0.0152043
0.0154139
0.0156114
0.0157967
0.0159698
0.0161305
0.0162786
0.0164139
0.0165362
0.0166445
0.0167387
0.0168193
0.0168861
0.0169391
0.0169784
0.0170043
0.0170127
0.0170062
0.0169861
0.0169527
0.0169014
0.0168339
0.0167536
0.0166584
0.0165428
0.0164153
0.0162728
0.0161095
0.0159355
0.0157425
0.0155326
0.015313
0.0150671
0.0148132
0.0145383
0.014249
0.0139456
0.0136212
0.0132888
0.0129296
0.0125654
0.0121738
0.0117753
0.0113538
0.0109206
0.0104688
0.0100001
0.00951772
0.00901177
0.00849798
0.00795181
0.00739516
0.0071046
0.00681404
0.0065168
0.00620751
0.00589821
0.00558222
0.0052524
0.00492258
0.00458059
0.00422822
0.00387493
0.00349812
0.00312131
0.00272258
0.00231984
0.00189155
0.0014508
0.000990724
0.000753708
0.000508607
0.000257796
0
)


113
(
0
0.000412997
0.000805625
0.00117913
0.00153701
0.0018802
0.00220959
0.00252621
0.00283107
0.00312511
0.00340914
0.00368383
0.00394978
0.00420743
0.0044572
0.00469892
0.00493252
0.00515919
0.00537914
0.00559251
0.00579945
0.00600007
0.00619444
0.00638173
0.006563
0.00673831
0.00690767
0.00707111
0.00722864
0.00738025
0.00752594
0.00766571
0.00779953
0.00792739
0.00804926
0.00816499
0.00827469
0.00837838
0.00847605
0.00856765
0.00865316
0.00873236
0.00880529
0.00887201
0.00893252
0.00898677
0.00903474
0.00907644
0.00911137
0.00913958
0.00916136
0.00917665
0.00918553
0.00918806
0.00918437
0.00917266
0.00915418
0.00912949
0.00909882
0.00905999
0.00901389
0.00896201
0.00890343
0.00883568
0.00876252
0.00868265
0.00859328
0.00849907
0.00839616
0.00828549
0.00817033
0.00804284
0.00791151
0.00777021
0.00762187
0.0074666
0.00730079
0.0071309
0.00694706
0.0067606
0.00655923
0.00635393
0.00613556
0.00591026
0.00567394
0.00542709
0.00517178
0.00490136
0.00462592
0.00432935
0.00402597
0.00386633
0.00370669
0.00354284
0.00337138
0.00319993
0.00302447
0.00284076
0.00265705
0.00246662
0.00227045
0.00207382
0.00186534
0.00165686
0.00143838
0.00121808
0.000987208
0.000751618
0.000508921
0.00038513
0.000258666
0.0001304
0
)


113
(
0
4.03516e-05
7.97295e-05
0.000118095
0.000155557
0.000192098
0.000227702
0.000262371
0.000296118
0.000328957
0.000360907
0.000391984
0.000422202
0.000451572
0.000480104
0.000507747
0.000534462
0.00056036
0.000585448
0.000609731
0.000633211
0.000655893
0.000677775
0.000698742
0.000718928
0.000738334
0.000756962
0.000774814
0.000791892
0.000808197
0.000823732
0.000838498
0.000852496
0.00086573
0.0008782
0.000889892
0.000900826
0.000911011
0.000920449
0.000929141
0.000937091
0.000944277
0.000950712
0.000956406
0.000961366
0.000965592
0.000969086
0.000971854
0.000973843
0.000975066
0.00097556
0.000975321
0.000974362
0.000972696
0.000970338
0.000967092
0.000963103
0.000958434
0.000953112
0.000946902
0.000939905
0.000932285
0.000923943
0.000914619
0.000904718
0.0008941
0.000882475
0.000870341
0.000857288
0.000843424
0.000829089
0.000813476
0.000797467
0.000780435
0.00076269
0.000744243
0.000724746
0.000704842
0.000683579
0.000662064
0.000639136
0.000615848
0.000591363
0.000566269
0.000540209
0.000513272
0.000485629
0.000456804
0.000427585
0.000396824
0.000365604
0.000349459
0.000333314
0.000316909
0.000300036
0.000283162
0.000266064
0.000248503
0.000230941
0.000213037
0.000194841
0.000176623
0.000157855
0.000139088
0.000119897
0.000100629
8.0949e-05
6.10968e-05
4.09913e-05
3.08548e-05
2.06302e-05
1.03483e-05
0
)

)


10
(

113
(
0
2.75977e-05
5.71462e-05
8.76947e-05
0.000118596
0.000151667
0.00018468
0.000218604
0.000255243
0.0002946
0.000339316
0.000390917
0.00045175
0.000526077
0.000616846
0.000743667
0.000909
0.00111538
0.00136417
0.00170583
0.00211385
0.002625
0.00325667
0.00399
0.00479
0.005815
0.0069875
0.0083125
0.0098075
0.0114833
0.0133167
0.0154636
0.0177667
0.0202
0.0229
0.0259545
0.0292091
0.0327636
0.0364
0.0400364
0.0435909
0.04726
0.0502545
0.05299
0.0552
0.0569818
0.0584818
0.0596333
0.0604333
0.0611
0.0614077
0.0615583
0.0614846
0.0612286
0.0608714
0.0602286
0.0594571
0.0586
0.0576
0.0565375
0.0554125
0.0541188
0.0527875
0.0514125
0.0500118
0.0486
0.0472111
0.0458222
0.0444333
0.043
0.0415
0.0400474
0.0386263
0.0371684
0.0356947
0.03428
0.03288
0.03148
0.03008
0.02868
0.02728
0.02588
0.02448
0.0230211
0.0215474
0.020185
0.018835
0.0174
0.0159611
0.0145722
0.0131941
0.0125176
0.0118412
0.0111606
0.0104637
0.00976687
0.00907
0.00841667
0.00776333
0.00711
0.00639333
0.00567667
0.00499455
0.00433545
0.00367778
0.00302222
0.00237
0.00174
0.00119
0.000900625
0.000576
0.00028475
0
)


113
(
0
2.8458e-05
5.85174e-05
8.96265e-05
0.000122107
0.000156447
0.000193541
0.000234772
0.000282096
0.000338224
0.000406212
0.000490454
0.00059459
0.000724143
0.000891474
0.001102
0.00136238
0.00168165
0.00206001
0.00252676
0.0030964
0.00375614
0.00452484
0.00541106
0.00642816
0.00760499
0.00892822
0.0104027
0.012033
0.0138231
0.0157946
0.0179334
0.0202334
0.0226666
0.0252157
0.0278692
0.030598
0.0333658
0.0361381
0.0388744
0.0415314
0.0440774
0.0464711
0.0486956
0.0507054
0.0524999
0.0540637
0.0553854
0.0564836
0.0573506
0.0579298
0.05832
0.0585027
0.0585095
0.0583181
0.057945
0.057446
0.0568263
0.0560301
0.055154
0.054198
0.053123
0.0520035
0.050811
0.0495616
0.0482879
0.0469529
0.0456095
0.0442326
0.0428454
0.0414427
0.0400318
0.0386153
0.0371956
0.0357746
0.0343539
0.0329333
0.0315154
0.030098
0.0286832
0.0272689
0.0258567
0.0244449
0.0230351
0.0216258
0.0202203
0.0188153
0.017416
0.0160183
0.0146289
0.0132425
0.0125526
0.0118628
0.0111738
0.0104884
0.00980304
0.00911766
0.00843693
0.00775621
0.00707548
0.0064011
0.00572671
0.00505878
0.00439515
0.00373766
0.00308936
0.00245171
0.00182261
0.00119933
0.000897397
0.000598528
0.000310011
0
)


113
(
0
3.64853e-05
7.81018e-05
0.000128405
0.000188839
0.00026278
0.000355384
0.000469307
0.000607809
0.000777759
0.000981692
0.00122602
0.00151424
0.00185231
0.00225465
0.00272031
0.00325417
0.00385998
0.004532
0.00529998
0.00616222
0.00710336
0.00813416
0.00925374
0.010464
0.0117777
0.0131737
0.0146496
0.0162019
0.0178248
0.0195176
0.0212672
0.0230641
0.0248917
0.0267426
0.028607
0.030469
0.0323248
0.0341497
0.0359315
0.0376663
0.039336
0.040926
0.0424371
0.043847
0.0451533
0.046347
0.047422
0.0483845
0.0492213
0.0498965
0.0504575
0.0508867
0.0511976
0.0513668
0.0513972
0.0513249
0.0511506
0.050811
0.0503905
0.0498892
0.0492503
0.0485563
0.0477695
0.0468943
0.0459811
0.0449599
0.0439197
0.042804
0.0416568
0.0404623
0.0392323
0.0379787
0.0366896
0.0353853
0.0340527
0.032713
0.0313531
0.0299881
0.0286096
0.0272277
0.0258386
0.0244476
0.023054
0.0216597
0.0202655
0.0188713
0.0174816
0.0160928
0.0147085
0.0133281
0.0126425
0.0119568
0.011272
0.0105906
0.0099092
0.00922779
0.00854518
0.00786257
0.00717995
0.00650383
0.00582771
0.00516002
0.00449795
0.00383957
0.00318675
0.00254063
0.00190236
0.00127762
0.000974312
0.000671164
0.000359878
0
)


113
(
0
0.000119714
0.000252145
0.000412986
0.000603986
0.000828901
0.0010908
0.00139233
0.00173564
0.00212237
0.00255309
0.00303076
0.00355675
0.0041363
0.00477151
0.00546038
0.00619382
0.00697374
0.00779865
0.00868106
0.00961475
0.0105937
0.0116134
0.0126677
0.0137735
0.0149106
0.0160826
0.0172817
0.0185032
0.0197468
0.0210095
0.0222816
0.02356
0.0248381
0.0261114
0.0273738
0.0286207
0.0298499
0.0310517
0.0322217
0.0333515
0.0344427
0.0354888
0.0364866
0.0374284
0.0383114
0.0391342
0.0398919
0.0405839
0.0412108
0.0417469
0.0422194
0.0426152
0.0429407
0.0431832
0.0433365
0.0434263
0.043454
0.043364
0.0432162
0.0430106
0.0427053
0.0423517
0.0419114
0.0414011
0.040861
0.0402012
0.0395224
0.0387674
0.037972
0.0371161
0.0362073
0.0352634
0.034266
0.0332457
0.032167
0.0310737
0.0299312
0.0287763
0.0275818
0.0263774
0.0251349
0.0238829
0.0226028
0.0213157
0.0200066
0.0186951
0.0173372
0.0159765
0.0146371
0.0132962
0.012624
0.0119518
0.0112795
0.0106072
0.00993476
0.00926238
0.00859196
0.00792155
0.00725113
0.00658495
0.00591877
0.00525715
0.00459857
0.00394486
0.00329845
0.00266001
0.00202798
0.00140031
0.00107855
0.000749945
0.000396721
0
)


113
(
0
0.000329618
0.000648542
0.000988807
0.00135854
0.0017624
0.00220181
0.0026764
0.00318504
0.00372633
0.00429847
0.00490151
0.00553302
0.00619279
0.00688424
0.00760239
0.00834524
0.00911175
0.00989833
0.0107088
0.0115406
0.0123874
0.0132493
0.0141254
0.0150176
0.0159428
0.0168797
0.0178127
0.0187355
0.0196514
0.0205697
0.0214743
0.0223723
0.0232491
0.0241124
0.0249702
0.0258104
0.0266263
0.0274146
0.0281807
0.0289185
0.0296328
0.0303083
0.0309563
0.031572
0.0321499
0.0326898
0.0331907
0.0336523
0.0340737
0.03444
0.0347708
0.035055
0.035296
0.0354897
0.0356281
0.0357246
0.0357792
0.0357629
0.0357111
0.0356238
0.035458
0.0352616
0.0350142
0.0347139
0.0343909
0.0339724
0.0335364
0.0330307
0.0324929
0.0319067
0.031269
0.0305969
0.0298554
0.0290841
0.028244
0.0273867
0.0265022
0.025611
0.0246667
0.0237092
0.0227033
0.0216853
0.0206248
0.0195537
0.0184402
0.0173219
0.0161675
0.0150057
0.0138147
0.0126159
0.0120075
0.0113991
0.010789
0.0101719
0.00955482
0.00893774
0.00831683
0.00769593
0.00707502
0.00645519
0.00583535
0.00521772
0.00460155
0.00398599
0.00337134
0.00275232
0.00212578
0.00148083