/*--------------------------------*- C++ -*----------------------------------*\
| =========                 |                                                 |
| \\      /  F ield         | OpenFOAM: The Open Source CFD Toolbox           |
|  \\    /   O peration     | Version:  2.3.0                                 |
|   \\  /    A nd           | Web:      www.OpenFOAM.org                      |
|    \\/     M anipulation  |                                                 |
\*---------------------------------------------------------------------------*/
FoamFile
{
    version     2.0;
    format      ascii;
    class       dictionary;
    location    "constant";
    object      H2;
}
// * * * * * * * * * * * * * * * * * * * * * * * * * * * * * * * * * * * * * //

H2_table
13
(

10
(

113
(
0
4.69125e-08
6.70253e-08
8.4356e-08
1.00579e-07
1.16619e-07
1.34079e-07
1.5354e-07
1.77345e-07
2.06384e-07
2.54728e-07
3.29487e-07
4.25e-07
6.28774e-07
9.27516e-07
1.36292e-06
2.16656e-06
3.22098e-06
5.05024e-06
7.82515e-06
1.14387e-05
1.78366e-05
2.58975e-05
3.78111e-05
5.4742e-05
7.47199e-05
0.000105714
0.00014259
0.000187932
0.000247818
0.00031585
0.00040085
0.000500371
0.000609679
0.000743642
0.000888038
0.00104627
0.00122063
0.00140127
0.00159114
0.00178185
0.00197236
0.0021587
0.00233551
0.00250317
0.00265624
0.00280475
0.00293883
0.00306978
0.00319411
0.00331278
0.00342508
0.00352937
0.00362833
0.00371868
0.00380497
0.00388975
0.00397391
0.00405
0.00412246
0.00418543
0.00424257
0.00429673
0.00434813
0.00439583
0.0044375
0.00447404
0.00449239
0.00451
0.00451
0.00451
0.00448719
0.00446005
0.00441311
0.00435455
0.00428522
0.0042004
0.00411119
0.00400058
0.00388996
0.00376775
0.00364441
0.00351504
0.0033823
0.00324717
0.00310816
0.00296936
0.00283174
0.00269413
0.00254612
0.0023978
0.0023199
0.00224082
0.00216173
0.00208265
0.00199921
0.00191494
0.00183067
0.00174519
0.00165658
0.00156797
0.00147791
0.00137716
0.00127642
0.00117233
0.001064
0.000949877
0.000820864
0.000672696
0.000591714
0.000488143
0.000360286
0
)


113
(
0
4.18796e-08
6.46844e-08
8.4367e-08
1.05337e-07
1.30522e-07
1.64912e-07
2.23099e-07
3.16238e-07
4.48485e-07
7.0776e-07
1.12217e-06
1.65847e-06
2.73181e-06
4.20339e-06
6.24806e-06
9.6229e-06
1.37876e-05
2.0185e-05
2.873e-05
3.91796e-05
5.48392e-05
7.31071e-05
9.71513e-05
0.000127593
0.000161877
0.00020815
0.000260254
0.000320746
0.00039386
0.000473603
0.000566419
0.000669324
0.000778986
0.000903727
0.00103418
0.0011722
0.00131897
0.00146907
0.00162404
0.0017811
0.001939
0.00209621
0.0022513
0.00240438
0.00255154
0.00269657
0.00283343
0.00296688
0.00309306
0.00321396
0.00332891
0.00343715
0.00354092
0.00363716
0.00372986
0.00381476
0.00389648
0.00397046
0.00404096
0.00410406
0.00416261
0.00421432
0.00425972
0.00429938
0.00432968
0.00435613
0.00436899
0.00438105
0.00437394
0.00436682
0.00434118
0.004312
0.00426844
0.00421644
0.00415521
0.00408073
0.00400281
0.00390814
0.00381347
0.00370361
0.00359226
0.0034727
0.00334853
0.00322078
0.0030872
0.00295245
0.00281114
0.00266982
0.00252097
0.00237189
0.00229394
0.00221491
0.00213589
0.00205686
0.00197325
0.00188877
0.00180429
0.00171785
0.00162634
0.00153484
0.00144217
0.001341
0.00123982
0.00113233
0.00101681
0.000894734
0.000755789
0.000590412
0.000498651
0.00038085
0.000238724
0
)


113
(
0
1.21377e-07
3.19151e-07
6.62648e-07
1.20493e-06
2.01371e-06
3.21445e-06
5.03751e-06
7.48465e-06
1.05412e-05
1.49838e-05
2.06109e-05
2.71687e-05
3.66358e-05
4.76072e-05
6.07432e-05
7.74834e-05
9.60552e-05
0.00011917
0.000145735
0.000175359
0.000211577
0.000250614
0.000295588
0.000345982
0.000399602
0.000461909
0.000527931
0.000599298
0.000677682
0.000759618
0.000848322
0.000941827
0.00103854
0.00114215
0.00124838
0.0013581
0.00147192
0.00158748
0.0017058
0.00182559
0.00194617
0.00206772
0.00218904
0.00231016
0.00242956
0.00254828
0.0026641
0.00277832
0.00288917
0.00299685
0.00310095
0.00320044
0.00329686
0.00338704
0.00347429
0.00355417
0.00363103
0.00369975
0.00376479
0.00382191
0.00387418
0.00391924
0.00395765
0.00399042
0.00401399
0.00403411
0.00404202
0.00404926
0.00404066
0.00403206
0.00400932
0.00398388
0.00394769
0.00390519
0.00385578
0.00379644
0.00373431
0.00365858
0.00358285
0.00349263
0.00340098
0.00330008
0.00319398
0.00308274
0.00296314
0.00284165
0.00270953
0.0025774
0.00243416
0.00229057
0.00221399
0.00213589
0.0020578
0.00197971
0.00189572
0.00181059
0.00172547
0.00163721
0.00154089
0.00144456
0.00134698
0.00124026
0.00113354
0.00101936
0.000895694
0.000765914
0.000620406
0.000458654
0.000372402
0.000272445
0.000157829
0
)


113
(
0
2.79332e-06
6.19167e-06
1.06731e-05
1.63173e-05
2.32165e-05
3.16107e-05
4.19429e-05
5.38855e-05
6.73107e-05
8.36211e-05
0.000101931
0.000121811
0.000146136
0.00017214
0.00020056
0.000232875
0.000266996
0.000305179
0.00034609
0.00038942
0.000437426
0.000487328
0.000541148
0.000598364
0.000657595
0.000721944
0.000788294
0.000857525
0.000930339
0.00100494
0.0010829
0.0011631
0.00124479
0.00132975
0.00141585
0.00150343
0.00159275
0.00168279
0.00177391
0.00186568
0.00195772
0.00204958
0.00214126
0.00223276
0.00232282
0.00241235
0.00249978
0.00258623
0.0026706
0.00275261
0.00283196
0.00290828
0.00298257
0.00305244
0.00312024
0.00318258
0.0032427
0.00329669
0.00334792
0.00339324
0.00343495
0.00347108
0.00350206
0.00352871
0.0035483
0.00356517
0.00357242
0.00357917
0.00357371
0.00356825
0.00355178
0.00353322
0.00350601
0.00347373
0.00343593
0.00339017
0.00334209
0.00328263
0.00322317
0.00315028
0.00307606
0.00299377
0.00290694
0.00281336
0.00270876
0.00260181
0.00248151
0.00236121
0.00222938
0.0020972
0.0020251
0.00195109
0.00187709
0.00180309
0.00172173
0.00163897
0.0015562
0.00147065
0.00137791
0.00128517
0.00119109
0.00108717
0.000983247
0.000874125
0.000758384
0.00063901
0.000510292
0.000370115
0.000296099
0.000210848
0.000115748
0
)


113
(
0
1.31083e-05
2.62072e-05
4.06219e-05
5.66719e-05
7.44737e-05
9.4258e-05
0.000116369
0.000140247
0.0001657
0.000193961
0.000223994
0.000255419
0.000290111
0.000326165
0.000364178
0.000404859
0.000446771
0.00049143
0.000537796
0.000585677
0.000636346
0.000688089
0.000742006
0.000798568
0.000856674
0.00091752
0.000978797
0.00104069
0.00110446
0.00116893
0.00123428
0.00130037
0.00136698
0.00143489
0.00150291
0.00157106
0.00163961
0.00170818
0.00177662
0.00184471
0.00191257
0.00197984
0.00204648
0.00211251
0.00217721
0.00224142
0.00230363
0.00236499
0.00242455
0.0024823
0.00253801
0.0025915
0.00264351
0.00269239
0.0027398
0.00278322
0.002825
0.00286267
0.00289849
0.00293014
0.00295925
0.00298428
0.00300554
0.00302373
0.00303692
0.00304828
0.00305318
0.00305767
0.00305219
0.00304672
0.00303144
0.00301429
0.0029909
0.00296385
0.00293092
0.00288955
0.0028469
0.00279796
0.00274903
0.00268907
0.00262803
0.00255888
0.00248517
0.00240643
0.00231947
0.00223042
0.00212953
0.00202864
0.00191352
0.00179795
0.00173433
0.00166886
0.00160339
0.00153793
0.00146585
0.00139252
0.00131918
0.00124365
0.00116248
0.00108131
0.000999198
0.00091015
0.000821102
0.000728159
0.00063026
0.000529101
0.00041956
0.00029972
0.000236426
0.00016484
8.74961e-05
0
)


113
(
0
2.81294e-05
5.44653e-05
8.07061e-05
0.000107644
0.00013561
0.000164903
0.000195851
0.000228053
0.000261368
0.000296603
0.000332981
0.000370258
0.00040951
0.00044953
0.000490656
0.00053319
0.000576355
0.000620877
0.000666189
0.000712201
0.000759417
0.000807075
0.000855604
0.00090478
0.000954337
0.00100472
0.00105537
0.00110642
0.00115785
0.00120945
0.00126129
0.0013132
0.00136516
0.00141698
0.00146875
0.00152045
0.00157179
0.00162289
0.00167353
0.00172362
0.00177334
0.00182217
0.00187565
0.00193359
0.00198673
0.00203861
0.00208762
0.00213498
0.00217881
0.00222036
0.00225932
0.00229487
0.00232815
0.00235696
0.00238367
0.00238867
0.0023848
0.0023983
0.00241961
0.00243778
0.00245403
0.00246741
0.00247812
0.00248655
0.00249126
0.00249519
0.00249638
0.00249715
0.00248784
0.00247853
0.00246311
0.00244652
0.00242504
0.00240068
0.00237292
0.00234025
0.00230606
0.00226449
0.00222292
0.00217268
0.0021216
0.00206403
0.00200283
0.00193757
0.0018657
0.00179217
0.00170919
0.00162622
0.0015322
0.00143785
0.00138634
0.00133346
0.00128058
0.00122769
0.00117004
0.00111147
0.0010529
0.000992681
0.000928214
0.000863747
0.000798475
0.000727296
0.000656117
0.000581277
0.000501777
0.00041937
0.000329487
0.000231831
0.000180549
0.000124072
6.4509e-05
0
)


113
(
0
3.99283e-05
7.69501e-05
0.000112309
0.000146931
0.000181262
0.000215608
0.000250273
0.000285287
0.000320638
0.000356666
0.000393129
0.000429934
0.000467502
0.000505358
0.00054363
0.000582397
0.000621378
0.00066079
0.000700421
0.000740246
0.000780344
0.00081988
0.000857732
0.000896818
0.000936596
0.000976228
0.00101575
0.00105511
0.00109417
0.00113304
0.00117151
0.00120961
0.00124745
0.00128456
0.00132131
0.00135758
0.00139301
0.00142802
0.00146222
0.0014956
0.00152844
0.00156011
0.00159101
0.00162118
0.00164991
0.00167816
0.00170471
0.00173057
0.00175498
0.00177828
0.00180033
0.00182082
0.00184029
0.00185781
0.00187443
0.00188883
0.00190232
0.00191346
0.00192353
0.0019313
0.00193765
0.00194192
0.00194425
0.00194494
0.00194295
0.00193993
0.0019333
0.00192647
0.00191489
0.0019033
0.00188729
0.00187044
0.00185007
0.00182764
0.00180278
0.00177443
0.00174593
0.00171673
0.00168753
0.00164627
0.00160382
0.0015571
0.00150798
0.00145622
0.00140015
0.001343
0.00127972
0.00121643
0.00114589
0.00107511
0.00103673
0.000997398
0.000958067
0.000918735
0.0008758
0.000832177
0.000788555
0.000743563
0.00069505
0.000646538
0.000597332
0.00054305
0.000488768
0.000431519
0.000370495
0.000307402
0.000238987
0.00016581
0.000127753
8.69138e-05
4.4585e-05
0
)


113
(
0
4.241e-05
8.22045e-05
0.000119897
0.000156116
0.000191185
0.000225264
0.000258498
0.000291237
0.000323574
0.000355363
0.000386887
0.000418203
0.000449124
0.0004799
0.000510468
0.000540763
0.000570929
0.000600803
0.000630477
0.000659973
0.000689094
0.000718053
0.00074667
0.000774959
0.000803051
0.000830585
0.000857862
0.000884769
0.000911128
0.000937193
0.000962669
0.000987653
0.0010123
0.0010361
0.0010595
0.00108237
0.0011044
0.001126
0.00114683
0.00116689
0.00118647
0.001205
0.00122288
0.00124013
0.0012562
0.00127188
0.00128619
0.00129997
0.00131262
0.00132443
0.00133529
0.00134501
0.00135397
0.00136153
0.00136843
0.00137378
0.00137848
0.00138155
0.00138389
0.00138467
0.0013845
0.00138294
0.0013801
0.00137618
0.00137052
0.00136421
0.00135559
0.00134684
0.00133511
0.00132338
0.00130893
0.00129395
0.00127684
0.00125848
0.00123867
0.00121677
0.00119423
0.00116862
0.001143
0.00111382
0.00108429
0.00105212
0.00101846
0.00098314
0.000945103
0.00090636
0.000863615
0.000820871
0.000773143
0.00072526
0.000699155
0.000672366
0.000645577
0.000618788
0.000589321
0.000559345
0.000529368
0.00049839
0.000464836
0.000431281
0.000397252
0.000359746
0.00032224
0.000282904
0.000241239
0.000198443
0.000152736
0.000104709
7.99897e-05
5.40377e-05
2.74693e-05
0
)


113
(
0
3.17419e-05
6.20612e-05
9.10311e-05
0.000118889
0.00014575
0.00017162
0.000196473
0.00022063
0.000244187
0.000266781
0.000288829
0.000310449
0.000331155
0.000351509
0.000371356
0.000390552
0.000409454
0.000427711
0.000445573
0.000463086
0.000479951
0.000496563
0.000512657
0.000528312
0.000543706
0.000558438
0.000572893
0.000586951
0.000600471
0.000613717
0.00062643
0.000638728
0.000650747
0.000662093
0.000673139
0.000683789
0.00069384
0.000703592
0.00071282
0.000721544
0.000729952
0.0007377
0.000745044
0.000752
0.000758253
0.000764274
0.000769504
0.000774434
0.000778724
0.000782552
0.000785857
0.000788545
0.000790822
0.000792361
0.000793553
0.000793934
0.000793984
0.000793203
0.000792048
0.000790111
0.000787693
0.000784587
0.000780844
0.000776575
0.000771446
0.000765997
0.000759418
0.000752779
0.000744682
0.000736584
0.000727149
0.000717458
0.000706712
0.000695346
0.000683251
0.000670108
0.000656641
0.000641594
0.000626548
0.000609633
0.000592533
0.00057401
0.000554686
0.000534442
0.000512699
0.00049056
0.000466176
0.000441791
0.000414612
0.000387346
0.000372529
0.000357338
0.000342148
0.000326957
0.000310378
0.000293534
0.00027669
0.000259368
0.000240813
0.000222258
0.000203498
0.000183235
0.000162972
0.000142001
0.000120129
9.78641e-05
7.45884e-05
5.05788e-05
3.83535e-05
2.57657e-05
1.30056e-05
0
)


113
(
0
3.74007e-06
7.39313e-06
1.09548e-05
1.44336e-05
1.78319e-05
2.11437e-05
2.43575e-05
2.74986e-05
3.05753e-05
3.35397e-05
3.64349e-05
3.92758e-05
4.19916e-05
4.46559e-05
4.72463e-05
4.97362e-05
5.21798e-05
5.45196e-05
5.67937e-05
5.90098e-05
6.11156e-05
6.31778e-05
6.51506e-05
6.70472e-05
6.88986e-05
7.06348e-05
7.23233e-05
7.39431e-05
7.54711e-05
7.69522e-05
7.83435e-05
7.96659e-05
8.09419e-05
8.21081e-05
8.32264e-05
8.42813e-05
8.52423e-05
8.61571e-05
8.69914e-05
8.77501e-05
8.84617e-05
8.90763e-05
8.96328e-05
9.01337e-05
9.05357e-05
9.09055e-05
9.11668e-05
9.13878e-05
9.15231e-05
9.15976e-05
9.16037e-05
9.15307e-05
9.1405e-05
9.11869e-05
9.09254e-05
9.05645e-05
9.0163e-05
8.96619e-05
8.91161e-05
8.84785e-05
8.77846e-05
8.70118e-05
8.61661e-05
8.52614e-05
8.42603e-05
8.32243e-05
8.20647e-05
8.08987e-05
7.95772e-05
7.82557e-05
7.67956e-05
7.5309e-05
7.37164e-05
7.20616e-05
7.03362e-05
6.85093e-05
6.66524e-05
6.4649e-05
6.26456e-05
6.04774e-05
5.8293e-05
5.59905e-05
5.36215e-05
5.11815e-05
4.86258e-05
4.60419e-05
4.32988e-05
4.05556e-05
3.76326e-05
3.47039e-05
3.31712e-05
3.1617e-05
3.00627e-05
2.85084e-05
2.68829e-05
2.52437e-05
2.36046e-05
2.19436e-05
2.02266e-05
1.85096e-05
1.67844e-05
1.49984e-05
1.32125e-05
1.14011e-05
9.55707e-06
7.70021e-06
5.81025e-06
3.89807e-06
2.93535e-06
1.96227e-06
9.84453e-07
0
)

)


10
(

113
(
0
5.32271e-07
7.82304e-07
9.95209e-07
1.19303e-06
1.38315e-06
1.57198e-06
1.7678e-06
1.98343e-06
2.24028e-06
2.57306e-06
3.0347e-06
3.7011e-06
4.67354e-06
6.07874e-06
8.13819e-06
1.11766e-05
1.53707e-05
2.10134e-05
2.8438e-05
3.80175e-05
5.01661e-05
6.53586e-05
8.47042e-05
0.000108218
0.000136453
0.000169942
0.000209265
0.000255052
0.000307926
0.00036854
0.000437661
0.00051626
0.000605204
0.000705813
0.000819518
0.000947288
0.00108927
0.00124505
0.00141207
0.00158605
0.00175993
0.00192674
0.0020821
0.00222384
0.00235222
0.00246822
0.00257325
0.00266797
0.00275377
0.00283178
0.00290224
0.00296537
0.00302126
0.00306992
0.00310871
0.00313873
0.00316034
0.00317364
0.00317553
0.00316726
0.00315126
0.00312661
0.00309169
0.00305167
0.00300567
0.00295356
0.002899
0.0028407
0.00278027
0.00271862
0.00265488
0.00259071
0.00252553
0.00245976
0.00239341
0.00232644
0.00225922
0.00219111
0.00212283
0.00205345
0.00198377
0.0019131
0.00184178
0.00176946
0.00169602
0.00162168
0.0015455
0.00146869
0.00138911
0.00130848
0.00126696
0.00122544
0.00118316
0.00113949
0.00109583
0.00105133
0.00100511
0.000958883
0.000910892
0.000861396
0.000811741
0.000758086
0.000704431
0.00064604
0.000586765
0.000519828
0.000447216
0.000363474
0.000316091
0.000256962
0.000179977
0
)


113
(
0
4.68821e-07
7.45684e-07
9.75463e-07
1.19708e-06
1.43004e-06
1.69777e-06
2.0352e-06
2.49265e-06
3.13559e-06
4.05137e-06
5.34806e-06
7.15562e-06
9.62872e-06
1.29443e-05
1.74063e-05
2.34225e-05
3.11476e-05
4.08962e-05
5.30143e-05
6.78823e-05
8.59144e-05
0.000107566
0.000134046
0.00016524
0.000201681
0.000243909
0.000292432
0.000347798
0.000410499
0.000480908
0.0005594
0.000646093
0.000740989
0.000843886
0.000954414
0.00107169
0.00119467
0.00132209
0.00145259
0.00158488
0.0017171
0.00184781
0.0019757
0.00209935
0.00221758
0.0023296
0.00243473
0.00253189
0.00262065
0.0027012
0.00277338
0.00283728
0.00289303
0.00294082
0.00297847
0.00300777
0.00302954
0.00304416
0.00304932
0.00304646
0.00303748
0.00302161
0.00299718
0.00296818
0.00293368
0.00289255
0.00284844
0.00279938
0.00274686
0.00269234
0.00263369
0.00257406
0.00251198
0.00244866
0.00238412
0.0023182
0.00225176
0.00218387
0.00211572
0.00204619
0.00197631
0.00190524
0.00183349
0.00176066
0.0016867
0.00161182
0.0015351
0.00145776
0.0013775
0.00129615
0.00125421
0.00121227
0.00116954
0.00112538
0.00108122
0.00103615
0.000989202
0.000942255
0.000893366
0.000842822
0.000792096
0.000736747
0.000681398
0.000620427
0.000558404
0.000487036
0.000407706
0.00031363
0.000259741
0.000192657
0.000111923
0
)


113
(
0
5.18724e-07
1.08271e-06
1.82695e-06
2.81947e-06
4.16744e-06
6.00939e-06
8.46077e-06
1.16807e-05
1.58214e-05
2.10885e-05
2.76654e-05
3.57323e-05
4.55011e-05
5.72051e-05
7.12186e-05
8.79937e-05
0.000107496
0.000129955
0.000155599
0.000184654
0.000217332
0.000253856
0.000295039
0.00034038
0.000389941
0.000443806
0.000502022
0.000564541
0.000631286
0.000702171
0.000776929
0.000855377
0.000937244
0.0010221
0.00110966
0.00119936
0.00129076
0.00138346
0.00147668
0.0015701
0.00166323
0.00175518
0.00184568
0.00193417
0.0020202
0.00210302
0.00218246
0.0022578
0.0023286
0.00239468
0.00245572
0.00251163
0.00256233
0.00260773
0.00264614
0.00267865
0.00270574
0.00272764
0.00274255
0.00275135
0.0027554
0.00275403
0.00274566
0.00273335
0.00271623
0.00269283
0.00266643
0.00263481
0.00259902
0.00256082
0.00251681
0.00247121
0.00242153
0.00236941
0.00231488
0.00225722
0.00219834
0.00213599
0.00207305
0.00200698
0.0019402
0.00187105
0.00180078
0.00172872
0.00165504
0.00158006
0.00150272
0.0014246
0.00134316
0.00126058
0.00121793
0.00117528
0.00113169
0.00108638
0.00104107
0.000994537
0.000945466
0.000896395
0.000844514
0.000790241
0.000735783
0.000676662
0.000617542
0.000551881
0.000485008
0.000408664
0.000326951
0.000236611
0.000188125
0.000134873
7.56142e-05
0
)


113
(
0
3.16813e-06
6.84408e-06
1.15524e-05
1.73352e-05
2.43305e-05
3.26848e-05
4.25355e-05
5.4008e-05
6.72145e-05
8.22557e-05
9.92244e-05
0.000118326
0.000139694
0.00016322
0.000189041
0.000217403
0.000248173
0.000281175
0.000316597
0.000354535
0.000394777
0.000437498
0.000482898
0.000530702
0.000580707
0.000632878
0.000687163
0.000743412
0.000801427
0.000861072
0.000922249
0.00098484
0.0010486
0.00111317
0.00117863
0.00124442
0.0013105
0.00137652
0.00144227
0.00150775
0.00157226
0.00163587
0.00169828
0.00175927
0.00181855
0.00187599
0.00193138
0.00198425
0.00203459
0.00208217
0.0021268
0.00216851
0.00220723
0.00224277
0.00227416
0.00230204
0.00232663
0.002348
0.00236488
0.00237771
0.00238736
0.00239332
0.0023943
0.00239238
0.00238692
0.00237647
0.00236356
0.00234627
0.00232527
0.00230212
0.00227336
0.00224295
0.00220827
0.0021708
0.00213059
0.00208641
0.0020407
0.00199064
0.00193972
0.00188386
0.00182703
0.00176697
0.00170483
0.00163937
0.0015707
0.00149944
0.00142365
0.00134635
0.0012661
0.00118417
0.00114121
0.00109826
0.00105416
0.00100798
0.000961809
0.000914411
0.000864482
0.000814553
0.000762273
0.000707988
0.000653521
0.000594411
0.000535302
0.000471986
0.0004079
0.000339057
0.000267604
0.00019139
0.000151115
0.000106818
5.78385e-05
0
)


113
(
0
1.19374e-05
2.36862e-05
3.65096e-05
5.06566e-05
6.62957e-05
8.35157e-05
0.000102345
0.00012278
0.000144803
0.000168394
0.000193532
0.000220195
0.000248363
0.000278015
0.000309231
0.000342058
0.000376277
0.000411848
0.00044873
0.000486876
0.000526236
0.000566758
0.000608531
0.000651768
0.000696798
0.000742844
0.000789215
0.00083584
0.00088291
0.000930222
0.000977508
0.00102539
0.00107322
0.00112108
0.00116842
0.00121587
0.00126303
0.00130934
0.00135544
0.00140093
0.0014456
0.00148905
0.00153174
0.00157327
0.00161365
0.00165266
0.00169035
0.00172632
0.00176066
0.00179334
0.00182418
0.00185315
0.00188025
0.00190541
0.00192802
0.00194849
0.00196681
0.00198299
0.00199634
0.00200735
0.00201624
0.00202246
0.00202534
0.00202635
0.00202508
0.00201978
0.00201276
0.00200293
0.00198978
0.00197471
0.00195484
0.00193325
0.00190706
0.0018781
0.00184642
0.00181159
0.00177553
0.00173604
0.0016958
0.00165075
0.00160448
0.00155414
0.00150172
0.00144598
0.00138718
0.00132592
0.00126037
0.0011934
0.00112056
0.00104584
0.00100631
0.000966775
0.00092611
0.0008834
0.000840689
0.00079694
0.000751044
0.000705147
0.000657577
0.000608582
0.000559473
0.000507478
0.000455483
0.000400836
0.000345699
0.000286905
0.00022566
0.000159947
0.000125074
8.69789e-05
4.58366e-05
0
)


113
(
0
2.30516e-05
4.44159e-05
6.55818e-05
8.71806e-05
0.000109525
0.00013279
0.000157053
0.000182322
0.000208571
0.000235756
0.000263828
0.000292734
0.000322427
0.000352859
0.00038403
0.000415916
0.000448387
0.000481396
0.0005149
0.000548855
0.000583215
0.000617935
0.000653004
0.000688316
0.000723823
0.000759474
0.00079522
0.000831008
0.000866785
0.000902497
0.000938091
0.000973511
0.00100865
0.00104262
0.0010772
0.00111138
0.00114511
0.00117835
0.00121104
0.00124313
0.00127455
0.00130527
0.00133683
0.0013776
0.00141147
0.00144269
0.00147265
0.00149968
0.00152512
0.00154845
0.0015697
0.00158873
0.00160552
0.00162013
0.00163125
0.00163948
0.00163575
0.00162259
0.00163064
0.00163689
0.0016417
0.0016448
0.00164553
0.00164485
0.00164239
0.00164034
0.0016365
0.00162733
0.00161608
0.00160361
0.00158779
0.00157091
0.00155128
0.00152969
0.00150619
0.00147976
0.00145219
0.00142076
0.0013886
0.00135235
0.00131502
0.00127415
0.00123145
0.00118582
0.00113749
0.00108699
0.00103278
0.000977333
0.000917003
0.000855203
0.000822594
0.000789984
0.000756536
0.000721572
0.000686608
0.000650892
0.000613622
0.000576352
0.000537812
0.000498188
0.000458467
0.000416257
0.000374046
0.000329229
0.00028393
0.000234951
0.000183734
0.00012872
9.96498e-05
6.84225e-05
3.5425e-05
0
)


113
(
0
3.0193e-05
5.79938e-05
8.44264e-05
0.000110202
0.00013566
0.000161038
0.000186494
0.000212129
0.000237995
0.000264114
0.000290491
0.00031712
0.000343985
0.000371067
0.000398356
0.000425826
0.000453425
0.000481126
0.0005089
0.00053672
0.000564557
0.000592384
0.000616749
0.000643533
0.000670567
0.000697408
0.000724025
0.000750387
0.000776461
0.000802216
0.000827618
0.000852637
0.00087724
0.000901395
0.00092506
0.000948214
0.000970831
0.000992882
0.00101434
0.00103517
0.00105532
0.00107478
0.00109352
0.00111152
0.00112875
0.00114518
0.0011608
0.0011755
0.00118928
0.00120215
0.00121407
0.00122504
0.00123506
0.00124411
0.00125189
0.00125857
0.00126423
0.0012689
0.00127217
0.00127418
0.00127517
0.00127496
0.00127309
0.00127021
0.00126609
0.00126016
0.0012533
0.00124477
0.00123471
0.00122377
0.00121038
0.00119621
0.00118004
0.00116245
0.00114345
0.00112232
0.00110037
0.00107973
0.00105857
0.00102953
0.000999759
0.000967576
0.000934154
0.00089876
0.00086156
0.000822907
0.00078179
0.000739851
0.000694629
0.000648385
0.000624072
0.000599759
0.000574821
0.000548751
0.000522682
0.000495996
0.000468035
0.000440073
0.000410973
0.000380903
0.000350742
0.000318266
0.00028579
0.000250982
0.000215746
0.000177528
0.00013771
9.53237e-05
7.31509e-05
4.97618e-05
2.54623e-05
0
)


113
(
0
2.99822e-05
5.7992e-05
8.44374e-05
0.000109784
0.000134232
0.000157943
0.000181059
0.000203692
0.000225929
0.000247833
0.000269451
0.000290816
0.000311951
0.000332874
0.000353579
0.00037406
0.000394343
0.000414424
0.000434297
0.000453955
0.000473389
0.000492585
0.000511493
0.000530138
0.000548505
0.000566581
0.000584351
0.000601798
0.000618907
0.000635662
0.000652047
0.000668045
0.000683641
0.000698817
0.000713548
0.000727827
0.000741644
0.000754984
0.000767831
0.000780171
0.000791972
0.000803229
0.000813932
0.00082407
0.000833631
0.000842601
0.000850969
0.000858679
0.000865723
0.000872119
0.000877852
0.000882919
0.000887322
0.000891065
0.000893943
0.000896081
0.000897532
0.000898317
0.000898181
0.000897214
0.00089558
0.00089317
0.000889683
0.000885555
0.00088063
0.000874564
0.000867917
0.000860216
0.000851571
0.000842379
0.000831682
0.000820516
0.000808132
0.000794892
0.000780809
0.000765454
0.000749605
0.000732093
0.00071427
0.000694697
0.000674672
0.00065314
0.000630826
0.000607268
0.000582543
0.000556878
0.000529559
0.000501688
0.000471504
0.000440562
0.000424207
0.000407852
0.000391013
0.000373299
0.000355584
0.000337385
0.000318183
0.000298981
0.000278901
0.000258075
0.000237182
0.000214607
0.000192033
0.000167904
0.000143491
0.00011728
9.01971e-05
6.17645e-05
4.70624e-05
3.17994e-05
1.61411e-05
0
)


113
(
0
2.11635e-05
4.13299e-05
6.05624e-05
7.90338e-05
9.67912e-05
0.000113879
0.000130349
0.000146252
0.000161633
0.000176533
0.000190985
0.000205018
0.000218654
0.000231915
0.00024479
0.000257279
0.000269437
0.000281274
0.000292798
0.000304015
0.00031493
0.000325546
0.000335823
0.000345811
0.000355512
0.000364926
0.000374053
0.000382894
0.000391447
0.000399712
0.000407686
0.000415368
0.000422757
0.000429849
0.000436636
0.000443122
0.000449308
0.00045519
0.000460767
0.000466034
0.00047098
0.000475607
0.000479914
0.0004839
0.000487563
0.000490899
0.000493907
0.00049656
0.000498859
0.000500818
0.000502431
0.000503701
0.00050463
0.000505224
0.000505384
0.000505174
0.000504625
0.000503747
0.000502418
0.000500685
0.000498629
0.000496199
0.000493251
0.000489996
0.00048636
0.000482179
0.00047772
0.000472758
0.000467345
0.000461669
0.000455269
0.000448642
0.000441424
0.000433784
0.00042573
0.00041704
0.000408103
0.000398316
0.000388369
0.000377506
0.000366399
0.000354482
0.000342133
0.000329095
0.000315396
0.000301164
0.000285978
0.000270473
0.000253626
0.000236345
0.000227197
0.000218049
0.000208633
0.000198729
0.000188826
0.000178666
0.000167978
0.00015729
0.00014617
0.000134683
0.000123166
0.000110889
9.86117e-05
8.56929e-05
7.26572e-05
5.89431e-05
4.49264e-05
3.04538e-05
2.30609e-05
1.54965e-05
7.81667e-06
0
)


113
(
0
2.31371e-06
4.57222e-06
6.77336e-06
8.92322e-06
1.10208e-05
1.30653e-05
1.50567e-05
1.69957e-05
1.88832e-05
2.07202e-05
2.25075e-05
2.4246e-05
2.59362e-05
2.75788e-05
2.91709e-05
3.071e-05
3.22027e-05
3.36492e-05
3.50498e-05
3.64047e-05
3.77141e-05
3.89778e-05
4.01893e-05
4.13562e-05
4.24785e-05
4.35565e-05
4.459e-05
4.55793e-05
4.65244e-05
4.74254e-05
4.82824e-05
4.90954e-05
4.98647e-05
5.05901e-05
5.12709e-05
5.19083e-05
5.25027e-05
5.30542e-05
5.35629e-05
5.40289e-05
5.4451e-05
5.48299e-05
5.51663e-05
5.54603e-05
5.5712e-05
5.59217e-05
5.60894e-05
5.62123e-05
5.6291e-05
5.63276e-05
5.63219e-05
5.62747e-05
5.61865e-05
5.60584e-05
5.58789e-05
5.56564e-05
5.53946e-05
5.5095e-05
5.47439e-05
5.43473e-05
5.39144e-05
5.34398e-05
5.29081e-05
5.23429e-05
5.17362e-05
5.10709e-05
5.0376e-05
4.96277e-05
4.88321e-05
4.80092e-05
4.71119e-05
4.61916e-05
4.52115e-05
4.419e-05
4.31275e-05
4.20037e-05
4.08562e-05
3.96294e-05
3.83878e-05
3.70637e-05
3.57185e-05
3.43033e-05
3.28526e-05
3.13452e-05
2.97866e-05
2.81866e-05
2.65173e-05
2.4825e-05
2.30423e-05
2.12326e-05
2.02964e-05
1.93602e-05
1.84087e-05
1.74297e-05
1.64508e-05
1.54586e-05
1.44392e-05
1.34199e-05
1.23804e-05
1.13237e-05
1.02658e-05
9.17557e-06
8.08535e-06
6.97023e-06
5.85058e-06
4.70667e-06
3.55265e-06
2.38374e-06
1.79435e-06
1.19979e-06
6.0185e-07
0
)

)


10
(

113
(
0
2.36426e-06
3.40846e-06
4.29763e-06
5.112e-06
5.88903e-06
6.6496e-06
7.42264e-06
8.22973e-06
9.14191e-06
1.02772e-05
1.16917e-05
1.3525e-05
1.60308e-05
1.93385e-05
2.42e-05
3.065e-05
3.86e-05
4.7975e-05
6.0725e-05
7.52923e-05
9.31e-05
0.000114333
0.000138231
0.000164385
0.000197
0.00023325
0.000274083
0.00031975
0.000369583
0.000425417
0.000494
0.000564667
0.0006415
0.00073
0.000833545
0.000947909
0.00107455
0.00122
0.00136545
0.00151909
0.001686
0.00182909
0.001968
0.00209273
0.0022
0.00229545
0.00237667
0.00244
0.00249
0.00252846
0.0025575
0.00257769
0.00259
0.00259
0.00258429
0.00257143
0.00255
0.00252333
0.00249438
0.00246313
0.00242063
0.00237875
0.00234125
0.00229706
0.00225
0.00220556
0.00216111
0.00211667
0.00207
0.00202
0.00197158
0.00192421
0.00187684
0.00182947
0.00178
0.00173
0.001684
0.001639
0.00159
0.00154
0.001486
0.001431
0.00137789
0.00132526
0.001275
0.001225
0.001165
0.00110444
0.00104889
0.000991118
0.000959647
0.000928176
0.000896625
0.00086475
0.000832875
0.000801
0.000768333
0.000735667
0.000703
0.000663833
0.000624667
0.000585
0.000545
0.000503
0.000458
0.000408286
0.000355167
0.000301
0.000265375
0.000219
0.0001625
0
)


113
(
0
2.10127e-06
3.25076e-06
4.19129e-06
5.07425e-06
5.95684e-06
6.90063e-06
7.98129e-06
9.2925e-06
1.09529e-05
1.30866e-05
1.58619e-05
1.94066e-05
2.39107e-05
2.97937e-05
3.71912e-05
4.62821e-05
5.73171e-05
7.02638e-05
8.60038e-05
0.000104926
0.000126614
0.000151646
0.000180297
0.000213012
0.000250811
0.000293427
0.000341168
0.000394395
0.000453488
0.000519582
0.00059266
0.000672933
0.000759704
0.000852672
0.000951974
0.00105682
0.00116614
0.00127881
0.0013937
0.00150879
0.00162253
0.00173333
0.00183989
0.00194019
0.00203357
0.00211901
0.00219559
0.00226357
0.00232228
0.00236895
0.00240744
0.00243679
0.00245825
0.00247061
0.00247456
0.00247262
0.00246502
0.00244901
0.00242923
0.00240567
0.00237638
0.00234497
0.00231007
0.0022724
0.00223354
0.00219161
0.00214923
0.00210506
0.00206026
0.00201453
0.00196813
0.00192128
0.00187384
0.00182616
0.00177783
0.00172934
0.00168017
0.00163082
0.00158064
0.00153025
0.00147889
0.00142729
0.00137458
0.00132159
0.00126713
0.00121251
0.00115614
0.00109935
0.00104056
0.000980939
0.000950165
0.000919391
0.000888263
0.000855719
0.000823175
0.000790631
0.000755742
0.000720853
0.000685963
0.000648094
0.000610226
0.000570127
0.000528542
0.00048486
0.000438033
0.000386777
0.000329909
0.000262409
0.00022054
0.000175335
0.0001179
0
)


113
(
0
1.87489e-06
3.48417e-06
5.19997e-06
7.16605e-06
9.53768e-06
1.25152e-05
1.62084e-05
2.07331e-05
2.63332e-05
3.30969e-05
4.12379e-05
5.08869e-05
6.22641e-05
7.58051e-05
9.15934e-05
0.000109746
0.000130423
0.000153466
0.000179917
0.000209867
0.000242687
0.000278878
0.000318524
0.000361687
0.000408987
0.000459705
0.000513876
0.000571441
0.000632206
0.000696381
0.000763601
0.000833474
0.000905466
0.00097931
0.00105473
0.00113118
0.00120853
0.00128585
0.00136277
0.00143899
0.00151374
0.0015865
0.00165714
0.0017248
0.00178919
0.00184994
0.00190676
0.00195968
0.00200805
0.00205056
0.00208873
0.00212193
0.00215058
0.00217339
0.00219083
0.00220405
0.00221295
0.00221506
0.00221362
0.00220862
0.00219765
0.00218424
0.00216672
0.00214509
0.0021217
0.00209328
0.00206393
0.0020309
0.00199627
0.00195925
0.00192027
0.00187998
0.00183766
0.00179447
0.00174927
0.00170358
0.00165621
0.00160842
0.0015591
0.0015094
0.00145826
0.00140675
0.00135383
0.00130056
0.00124551
0.00119025
0.00113311
0.0010755
0.00101552
0.000954728
0.00092337
0.000892013