/*--------------------------------*- C++ -*----------------------------------*\
| =========                 |                                                 |
| \\      /  F ield         | OpenFOAM: The Open Source CFD Toolbox           |
|  \\    /   O peration     | Version:  2.3.0                                 |
|   \\  /    A nd           | Web:      www.OpenFOAM.org                      |
|    \\/     M anipulation  |                                                 |
\*---------------------------------------------------------------------------*/
FoamFile
{
    version     2.0;
    format      ascii;
    class       dictionary;
    location    "constant";
    object      H2O2;
}
// * * * * * * * * * * * * * * * * * * * * * * * * * * * * * * * * * * * * * //

H2O2_table
13
(

10
(

113
(
0
1.80625e-07
3.12867e-07
4.1452e-07
4.98114e-07
5.68452e-07
6.24802e-07
6.47241e-07
6.2229e-07
5.52358e-07
4.14609e-07
3.03385e-07
2.13e-07
1.73377e-07
1.42615e-07
1.24602e-07
1.1462e-07
1.07585e-07
1.05146e-07
1.0465e-07
1.05877e-07
1.09293e-07
1.13123e-07
1.17444e-07
1.2137e-07
1.25025e-07
1.26267e-07
1.26491e-07
1.25248e-07
1.20975e-07
1.15163e-07
1.06413e-07
9.58258e-08
8.40409e-08
7.10849e-08
5.82025e-08
4.54177e-08
3.44082e-08
2.44981e-08
1.67133e-08
1.0995e-08
6.48708e-09
4.04609e-09
2.34e-09
1.34e-09
8.75075e-10
5.38603e-10
4.16816e-10
3.29503e-10
3.15449e-10
3.38412e-10
4.03118e-10
5.2275e-10
6.79e-10
9.22645e-10
1.20742e-09
1.62391e-09
2.09421e-09
2.76333e-09
3.52179e-09
4.56876e-09
5.79257e-09
7.42972e-09
9.44841e-09
1.19843e-08
1.53639e-08
1.93422e-08
2.54431e-08
3.17691e-08
4.34964e-08
5.52236e-08
7.75869e-08
1.01976e-07
1.45905e-07
2.01311e-07
2.87812e-07
4.19063e-07
5.83814e-07
9.12133e-07
1.24045e-06
2.07577e-06
2.96123e-06
4.70159e-06
6.92283e-06
9.40762e-06
1.23224e-05
1.50064e-05
1.63826e-05
1.77587e-05
1.74751e-05
1.71402e-05
1.66347e-05
1.60224e-05
1.54102e-05
1.4798e-05
1.40157e-05
1.32011e-05
1.23865e-05
1.15413e-05
1.06172e-05
9.69316e-06
8.76358e-06
7.79343e-06
6.82328e-06
5.84407e-06
4.85333e-06
3.86e-06
2.86e-06
1.87179e-06
1.38114e-06
8.95429e-07
4.31571e-07
0
)


113
(
0
1.57152e-07
2.81452e-07
3.75664e-07
4.47038e-07
4.95986e-07
5.2013e-07
5.17056e-07
4.96864e-07
4.62856e-07
4.13948e-07
3.63289e-07
3.11252e-07
2.66227e-07
2.25996e-07
1.92664e-07
1.688e-07
1.48882e-07
1.36673e-07
1.27767e-07
1.21791e-07
1.18864e-07
1.16675e-07
1.1562e-07
1.146e-07
1.13583e-07
1.11776e-07
1.09414e-07
1.06251e-07
1.01883e-07
9.69232e-08
9.08648e-08
8.41614e-08
7.70344e-08
6.93568e-08
6.16562e-08
5.39248e-08
4.65646e-08
3.94901e-08
3.30115e-08
2.72413e-08
2.19243e-08
1.75965e-08
1.38406e-08
1.06341e-08
8.27273e-09
6.16475e-09
4.80434e-09
3.65214e-09
2.94239e-09
2.46123e-09
2.23783e-09
2.24872e-09
2.4158e-09
2.84869e-09
3.40666e-09
4.32781e-09
5.39729e-09
7.04721e-09
8.95792e-09
1.18171e-08
1.52576e-08
2.02998e-08
2.68206e-08
3.57808e-08
4.87212e-08
6.46597e-08
9.12275e-08
1.18968e-07
1.74866e-07
2.30764e-07
3.37027e-07
4.52883e-07
6.41778e-07
8.73569e-07
1.18912e-06
1.62521e-06
2.11265e-06
2.85084e-06
3.58902e-06
4.65131e-06
5.74566e-06
7.00845e-06
8.366e-06
9.7114e-06
1.1037e-05
1.22982e-05
1.31949e-05
1.40916e-05
1.42784e-05
1.44432e-05
1.42318e-05
1.39275e-05
1.36233e-05
1.33191e-05
1.27605e-05
1.21535e-05
1.15465e-05
1.08857e-05
1.00867e-05
9.28773e-06
8.47621e-06
7.57283e-06
6.66946e-06
5.74488e-06
4.79331e-06
3.83691e-06
2.86807e-06
1.89736e-06
1.4123e-06
9.36108e-07
4.71262e-07
0
)


113
(
0
1.1326e-07
2.00468e-07
2.68138e-07
3.18944e-07
3.55229e-07
3.78783e-07
3.87755e-07
3.88833e-07
3.8367e-07
3.70282e-07
3.53929e-07
3.35244e-07
3.14033e-07
2.92716e-07
2.71245e-07
2.5063e-07
2.30592e-07
2.12333e-07
1.95482e-07
1.7988e-07
1.663e-07
1.53657e-07
1.43037e-07
1.33173e-07
1.23766e-07
1.15962e-07
1.08652e-07
1.02054e-07
9.58122e-08
8.98152e-08
8.4404e-08
7.91527e-08
7.40084e-08
6.91056e-08
6.43423e-08
5.97638e-08
5.53975e-08
5.1158e-08
4.716e-08
4.34574e-08
3.9951e-08
3.69111e-08
3.42105e-08
3.1836e-08
3.02372e-08
2.89263e-08
2.875e-08
2.90935e-08
3.0542e-08
3.35459e-08
3.83037e-08
4.49162e-08
5.2765e-08
6.44628e-08
7.7972e-08
9.8564e-08
1.22049e-07
1.54064e-07
1.89911e-07
2.37899e-07
2.93328e-07
3.6431e-07
4.49648e-07
5.49875e-07
6.74395e-07
8.10925e-07
9.90038e-07
1.17192e-06
1.42017e-06
1.66843e-06
1.98574e-06
2.31621e-06
2.70684e-06
3.1328e-06
3.59641e-06
4.11421e-06
4.64502e-06
5.2394e-06
5.83378e-06
6.46375e-06
7.09724e-06
7.71587e-06
8.32615e-06
8.89447e-06
9.39435e-06
9.86319e-06
1.01561e-05
1.0449e-05
1.04672e-05
1.0477e-05
1.03495e-05
1.01802e-05
1.0011e-05
9.84174e-06
9.52586e-06
9.18206e-06
8.83825e-06
8.44424e-06
7.92116e-06
7.39808e-06
6.86036e-06
6.21535e-06
5.57033e-06
4.88236e-06
4.13974e-06
3.38047e-06
2.57839e-06
1.76239e-06
1.35039e-06
9.33687e-07
5.01581e-07
0
)


113
(
0
7.61315e-08
1.32133e-07
1.77983e-07
2.15777e-07
2.46139e-07
2.69081e-07
2.84739e-07
2.95757e-07
3.02904e-07
3.04501e-07
3.03462e-07
3.0035e-07
2.94375e-07
2.87177e-07
2.78221e-07
2.67888e-07
2.57075e-07
2.45597e-07
2.33944e-07
2.22135e-07
2.10671e-07
1.99362e-07
1.88383e-07
1.78092e-07
1.68199e-07
1.58881e-07
1.50112e-07
1.42134e-07
1.34974e-07
1.28419e-07
1.23374e-07
1.19012e-07
1.15124e-07
1.13088e-07
1.1163e-07
1.10938e-07
1.12395e-07
1.14984e-07
1.19605e-07
1.26104e-07
1.33898e-07
1.45014e-07
1.58703e-07
1.74864e-07
1.95528e-07
2.17711e-07
2.45235e-07
2.76017e-07
3.13721e-07
3.57971e-07
4.096e-07
4.6414e-07
5.20621e-07
5.93937e-07
6.75176e-07
7.67278e-07
8.63819e-07
9.76943e-07
1.09752e-06
1.23516e-06
1.38327e-06
1.54443e-06
1.71763e-06
1.90443e-06
2.11341e-06
2.32916e-06
2.56889e-06
2.81e-06
3.0842e-06
3.35841e-06
3.6562e-06
3.95848e-06
4.27381e-06
4.5968e-06
4.92367e-06
5.25611e-06
5.58763e-06
5.9147e-06
6.24177e-06
6.53838e-06
6.83198e-06
7.09255e-06
7.33454e-06
7.53798e-06
7.67849e-06
7.79928e-06
7.80822e-06
7.81717e-06
7.68265e-06
7.54368e-06
7.40563e-06
7.24593e-06
7.08622e-06
6.92652e-06
6.6863e-06
6.43075e-06
6.1752e-06
5.89328e-06
5.54357e-06
5.19387e-06
4.8341e-06
4.40057e-06
3.96703e-06
3.50498e-06
3.00662e-06
2.49529e-06
1.95058e-06
1.37657e-06
1.0796e-06
7.54955e-07
4.04906e-07
0
)


113
(
0
5.09479e-08
8.90846e-08
1.20445e-07
1.47492e-07
1.70934e-07
1.90823e-07
2.07041e-07
2.20779e-07
2.32403e-07
2.40792e-07
2.47533e-07
2.52979e-07
2.56072e-07
2.58449e-07
2.59796e-07
2.60215e-07
2.60301e-07
2.59891e-07
2.59446e-07
2.5897e-07
2.58887e-07
2.59084e-07
2.59956e-07
2.61059e-07
2.62354e-07
2.66642e-07
2.72257e-07
2.79781e-07
2.8976e-07
3.00814e-07
3.13605e-07
3.29538e-07
3.47461e-07
3.64477e-07
3.82079e-07
4.00457e-07
4.3191e-07
4.66188e-07
5.01865e-07
5.38121e-07
5.76063e-07
6.24463e-07
6.76374e-07
7.31658e-07
7.94758e-07
8.59742e-07
9.27932e-07
1.0018e-06
1.08773e-06
1.17801e-06
1.27321e-06
1.37353e-06
1.47729e-06
1.59124e-06
1.70999e-06
1.83419e-06
1.96061e-06
2.10126e-06
2.24831e-06
2.40269e-06
2.56157e-06
2.72534e-06
2.89364e-06
3.06656e-06
3.24702e-06
3.42919e-06
3.61742e-06
3.80576e-06
3.99644e-06
4.18712e-06
4.37365e-06
4.55938e-06
4.73931e-06
4.91584e-06
5.08508e-06
5.24385e-06
5.39884e-06
5.53536e-06
5.67188e-06
5.77392e-06
5.87255e-06
5.93851e-06
5.98609e-06
6.00895e-06
5.99145e-06
5.96207e-06
5.86537e-06
5.76867e-06
5.58285e-06
5.39428e-06
5.26171e-06
5.11705e-06
4.97239e-06
4.82773e-06
4.63976e-06
4.44355e-06
4.24734e-06
4.03744e-06
3.79235e-06
3.54726e-06
3.29695e-06
3.00836e-06
2.71977e-06
2.4139e-06
2.08606e-06
1.74676e-06
1.37801e-06
9.77553e-07
7.67043e-07
5.32209e-07
2.80728e-07
0
)


113
(
0
3.73312e-08
6.76612e-08
9.38239e-08
1.17585e-07
1.39653e-07
1.60338e-07
1.79863e-07
1.98711e-07
2.17018e-07
2.34641e-07
2.5203e-07
2.69233e-07
2.86364e-07
3.03615e-07
3.21042e-07
3.39014e-07
3.57305e-07
3.76485e-07
3.96434e-07
4.17064e-07
4.39332e-07
4.62345e-07
4.86962e-07
5.13176e-07
5.40344e-07
5.70265e-07
6.01461e-07
6.3449e-07
6.7022e-07
7.07389e-07
7.47432e-07
7.89847e-07
8.33875e-07
8.82582e-07
9.32918e-07
9.85413e-07
1.04173e-06
1.09999e-06
1.16165e-06
1.22661e-06
1.29365e-06
1.36504e-06
1.42204e-06
1.46519e-06
1.57727e-06
1.69746e-06
1.777e-06
1.86265e-06
1.96128e-06
2.06481e-06
2.17388e-06
2.28072e-06
2.38606e-06
2.49154e-06
2.59707e-06
2.68718e-06
2.77099e-06
2.87404e-06
2.98572e-06
3.09816e-06
3.21107e-06
3.32375e-06
3.43622e-06
3.54775e-06
3.65774e-06
3.76617e-06
3.86911e-06
3.97179e-06
4.06826e-06
4.16472e-06
4.25189e-06
4.33728e-06
4.41325e-06
4.48369e-06
4.54618e-06
4.59721e-06
4.64407e-06
4.6706e-06
4.69713e-06
4.69623e-06
4.69262e-06
4.66593e-06
4.62626e-06
4.57066e-06
4.48908e-06
4.40042e-06
4.27164e-06
4.14286e-06
3.96446e-06
3.78454e-06
3.67445e-06
3.558e-06
3.44155e-06
3.32511e-06
3.18658e-06
3.04384e-06
2.90111e-06
2.75116e-06
2.58267e-06
2.41418e-06
2.24254e-06
2.04791e-06
1.85327e-06
1.64614e-06
1.42312e-06
1.19113e-06
9.36112e-07
6.58494e-07
5.12589e-07
3.52018e-07
1.82856e-07
0
)


113
(
0
4.09051e-08
7.77648e-08
1.12054e-07
1.44964e-07
1.77082e-07
2.08789e-07
2.40487e-07
2.72388e-07
3.04527e-07
3.37333e-07
3.70686e-07
4.0447e-07
4.39446e-07
4.74983e-07
5.11325e-07
5.4888e-07
5.87018e-07
6.26525e-07
6.66962e-07
7.08224e-07
7.51152e-07
7.95798e-07
8.44807e-07
8.92703e-07
9.40013e-07
9.89259e-07
1.03932e-06
1.09056e-06
1.14339e-06
1.19703e-06
1.25223e-06
1.30862e-06
1.3658e-06
1.42483e-06
1.48464e-06
1.54549e-06
1.60779e-06
1.67079e-06
1.73495e-06
1.80013e-06
1.86591e-06
1.93284e-06
2.00036e-06
2.06844e-06
2.1373e-06
2.20638e-06
2.27605e-06
2.34582e-06
2.41579e-06
2.48569e-06
2.55552e-06
2.62495e-06
2.6941e-06
2.76238e-06
2.83023e-06
2.89663e-06
2.96243e-06
3.02619e-06
3.08903e-06
3.14941e-06
3.20827e-06
3.26446e-06
3.31818e-06
3.36944e-06
3.41669e-06
3.4622e-06
3.50155e-06
3.54051e-06
3.57035e-06
3.60018e-06
3.62058e-06
3.63918e-06
3.64954e-06
3.65507e-06
3.6544e-06
3.64483e-06
3.63349e-06
3.61343e-06
3.59338e-06
3.54771e-06
3.49951e-06
3.43776e-06
3.3684e-06
3.29026e-06
3.19779e-06
3.10161e-06
2.98435e-06
2.86708e-06
2.7244e-06
2.58094e-06
2.49878e-06
2.41332e-06
2.32787e-06
2.24241e-06
2.14482e-06
2.04493e-06
1.94503e-06
1.84077e-06
1.72531e-06
1.60984e-06
1.4923e-06
1.35958e-06
1.22687e-06
1.08575e-06
9.33958e-07
7.76529e-07
6.04618e-07
4.20066e-07
3.239e-07
2.20456e-07
1.13146e-07
0
)


113
(
0
5.65239e-08
1.09828e-07
1.60631e-07
2.09762e-07
2.57661e-07
3.04588e-07
3.50816e-07
3.96725e-07
4.42408e-07
4.8794e-07
5.33508e-07
5.79105e-07
6.24931e-07
6.70897e-07
7.17064e-07
7.63557e-07
8.10206e-07
8.57217e-07
9.04457e-07
9.519e-07
9.99707e-07
1.04765e-06
1.09585e-06
1.14424e-06
1.19275e-06
1.24146e-06
1.29023e-06
1.33908e-06
1.38796e-06
1.43683e-06
1.48565e-06
1.53436e-06
1.58299e-06
1.63134e-06
1.6795e-06
1.72743e-06
1.77488e-06
1.82206e-06
1.86874e-06
1.91483e-06
1.96054e-06
2.00536e-06
2.04957e-06
2.09317e-06
2.13555e-06
2.17751e-06
2.21792e-06
2.25768e-06
2.29604e-06
2.3333e-06
2.3693e-06
2.40367e-06
2.43695e-06
2.46812e-06
2.49829e-06
2.52592e-06
2.55252e-06
2.57632e-06
2.59887e-06
2.61858e-06
2.63655e-06
2.65186e-06
2.66472e-06
2.67541e-06
2.68258e-06
2.68837e-06
2.68927e-06
2.6899e-06
2.68393e-06
2.67796e-06
2.6657e-06
2.65224e-06
2.63367e-06
2.6121e-06
2.58692e-06
2.55656e-06
2.52458e-06
2.4847e-06
2.44482e-06
2.39557e-06
2.34539e-06
2.28811e-06
2.22683e-06
2.16101e-06
2.08778e-06
2.01261e-06
1.92646e-06
1.84032e-06
1.74054e-06
1.64035e-06
1.5844e-06
1.52662e-06
1.46883e-06
1.41104e-06
1.34617e-06
1.27994e-06
1.21371e-06
1.14488e-06
1.06938e-06
9.93881e-07
9.17176e-07
8.31646e-07
7.46116e-07
6.56021e-07
5.60116e-07
4.61425e-07
3.55568e-07
2.44048e-07
1.86568e-07
1.26097e-07
6.4136e-08
0
)


113
(
0
5.68835e-08
1.1146e-07
1.63861e-07
2.14481e-07
2.63515e-07
3.10982e-07
3.56855e-07
4.01645e-07
4.45506e-07
4.87884e-07
5.29432e-07
5.70327e-07
6.0984e-07
6.48825e-07
6.87049e-07
7.24299e-07
7.61108e-07
7.96954e-07
8.3221e-07
8.66943e-07
9.00702e-07
9.34078e-07
9.6667e-07
9.98592e-07
1.03012e-06
1.06061e-06
1.09068e-06
1.12012e-06
1.14871e-06
1.17686e-06
1.20415e-06
1.23076e-06
1.25691e-06
1.28194e-06
1.30647e-06
1.33032e-06
1.35315e-06
1.37545e-06
1.39684e-06
1.41734e-06
1.43727e-06
1.45602e-06
1.47402e-06
1.49131e-06
1.5073e-06
1.52285e-06
1.5369e-06
1.55038e-06
1.56264e-06
1.57398e-06
1.58431e-06
1.59342e-06
1.60171e-06
1.60852e-06
1.61462e-06
1.61908e-06
1.62285e-06
1.6249e-06
1.62617e-06
1.6258e-06
1.62442e-06
1.62156e-06
1.61735e-06
1.61199e-06
1.60478e-06
1.59687e-06
1.58647e-06
1.57595e-06
1.56219e-06
1.54843e-06
1.53166e-06
1.51433e-06
1.49461e-06
1.47348e-06
1.45069e-06
1.4255e-06
1.39957e-06
1.37e-06
1.34044e-06
1.30655e-06
1.27224e-06
1.23462e-06
1.19514e-06
1.15353e-06
1.10842e-06
1.06239e-06
1.01113e-06
9.59879e-07
9.02123e-07
8.44167e-07
8.12442e-07
7.79849e-07
7.47256e-07
7.14663e-07
6.78859e-07
6.42442e-07
6.06025e-07
5.68504e-07
5.28141e-07
4.87778e-07
4.46944e-07
4.02655e-07
3.58367e-07
3.12456e-07
2.64479e-07
2.15605e-07
1.64419e-07
1.11558e-07
8.46241e-08
5.6864e-08
2.87115e-08
0
)


113
(
0
7.96386e-09
1.57437e-08
2.33304e-08
3.07417e-08
3.79828e-08
4.50409e-08
5.18916e-08
5.85883e-08
6.51488e-08
7.14714e-08
7.76476e-08
8.37086e-08
8.95045e-08
9.51915e-08
1.00721e-07
1.06039e-07
1.11258e-07
1.16256e-07
1.21116e-07
1.25852e-07
1.30354e-07
1.34763e-07
1.38983e-07
1.43041e-07
1.47002e-07
1.50719e-07
1.54335e-07
1.57804e-07
1.61078e-07
1.64253e-07
1.67236e-07
1.70073e-07
1.7281e-07
1.75315e-07
1.77717e-07
1.79984e-07
1.82051e-07
1.84019e-07
1.85816e-07
1.87451e-07
1.88987e-07
1.90315e-07
1.91519e-07
1.92604e-07
1.93479e-07
1.94284e-07
1.94858e-07
1.95346e-07
1.9565e-07
1.95825e-07
1.95854e-07
1.95713e-07
1.95459e-07
1.95008e-07
1.94464e-07
1.93707e-07
1.92863e-07
1.91806e-07
1.90653e-07
1.89304e-07
1.87834e-07
1.86194e-07
1.84399e-07
1.82476e-07
1.80347e-07
1.78144e-07
1.75675e-07
1.73192e-07
1.70375e-07
1.67559e-07
1.64445e-07
1.61274e-07
1.57875e-07
1.54342e-07
1.50658e-07
1.46756e-07
1.42789e-07
1.38507e-07
1.34225e-07
1.29589e-07
1.24917e-07
1.19992e-07
1.14923e-07
1.09702e-07
1.04231e-07
9.87003e-08
9.28262e-08
8.6952e-08
8.06902e-08
7.44165e-08
7.11323e-08
6.78016e-08
6.44708e-08
6.11401e-08
5.76557e-08
5.4142e-08
5.06283e-08
4.70677e-08
4.33862e-08
3.97046e-08
3.60053e-08
3.21751e-08
2.8345e-08
2.44597e-08
2.05043e-08
1.65211e-08
1.24666e-08
8.36405e-09
6.2985e-09
4.21059e-09
2.11245e-09
0
)

)


10
(

113
(
0
3.77827e-07
6.72521e-07
9.18277e-07
1.13863e-06
1.34049e-06
1.52208e-06
1.66847e-06
1.74456e-06
1.70018e-06
1.51192e-06
1.23065e-06
9.44876e-07
7.20921e-07
5.69782e-07
4.70658e-07
4.03116e-07
3.53487e-07
3.16494e-07
2.88553e-07
2.6719e-07
2.50646e-07
2.37636e-07
2.27463e-07
2.18884e-07
2.11346e-07
2.04376e-07
1.97552e-07
1.90489e-07
1.82857e-07
1.74381e-07
1.64797e-07
1.53888e-07
1.41536e-07
1.27652e-07
1.12317e-07
9.58531e-08
7.88559e-08
6.2098e-08
4.65501e-08
3.31152e-08
2.25741e-08
1.5069e-08
1.02752e-08
7.65611e-09
6.66202e-09
6.8473e-09
7.91044e-09
9.74274e-09
1.23005e-08
1.56041e-08
1.97543e-08
2.48581e-08
3.10251e-08
3.83536e-08
4.74078e-08
5.81467e-08
7.05965e-08
8.48299e-08
1.01806e-07
1.21622e-07
1.43933e-07
1.69331e-07
1.99996e-07
2.34603e-07
2.74428e-07
3.25038e-07
3.82986e-07
4.56134e-07
5.50881e-07
6.58148e-07
8.21321e-07
1.00893e-06
1.26252e-06
1.56217e-06
1.90715e-06
2.27393e-06
2.64915e-06
2.96522e-06
3.26579e-06
3.44991e-06
3.60395e-06
3.65782e-06
3.67194e-06
3.62281e-06
3.53411e-06
3.41354e-06
3.25728e-06
3.08911e-06
2.88852e-06
2.68053e-06
2.568e-06
2.45547e-06
2.33952e-06
2.21737e-06
2.09523e-06
1.97047e-06
1.84032e-06
1.71017e-06
1.57644e-06
1.43967e-06
1.30271e-06
1.16079e-06
1.01887e-06
8.73799e-07
7.28157e-07
5.80302e-07
4.32137e-07
2.84097e-07
2.10469e-07
1.37671e-07
6.66828e-08
0
)


113
(
0
3.39283e-07
6.23887e-07
8.60821e-07
1.0607e-06
1.21976e-06
1.33186e-06
1.39145e-06
1.39791e-06
1.35575e-06
1.27413e-06
1.16496e-06
1.0403e-06
9.10895e-07
7.85685e-07
6.72874e-07
5.76581e-07
4.95822e-07
4.2963e-07
3.76468e-07
3.34341e-07
3.01014e-07
2.74659e-07
2.54325e-07
2.37275e-07
2.22766e-07
2.09989e-07
1.98275e-07
1.87181e-07
1.76379e-07
1.65566e-07
1.54616e-07
1.43412e-07
1.31988e-07
1.20403e-07
1.08762e-07
9.72467e-08
8.60291e-08
7.53166e-08
6.53005e-08
5.61335e-08
4.80392e-08
4.11275e-08
3.54468e-08
3.10685e-08
2.80283e-08
2.63149e-08
2.59373e-08
2.69842e-08
2.94584e-08
3.33061e-08
3.85827e-08
4.53463e-08
5.36721e-08
6.36378e-08
7.60261e-08
9.08225e-08
1.08133e-07
1.28141e-07
1.52546e-07
1.81992e-07
2.16131e-07
2.56276e-07
3.07006e-07
3.65343e-07
4.3365e-07
5.19648e-07
6.15735e-07
7.3119e-07
8.65806e-07
1.01153e-06
1.18768e-06
1.37199e-06
1.57703e-06
1.79051e-06
2.01228e-06
2.23254e-06
2.45223e-06
2.64894e-06
2.83966e-06
2.9854e-06
3.11588e-06
3.19563e-06
3.24721e-06
3.25397e-06
3.22209e-06
3.15908e-06
3.05147e-06
2.92899e-06
2.76013e-06
2.58057e-06
2.47847e-06
2.37638e-06
2.26964e-06
2.15454e-06
2.03943e-06
1.92113e-06
1.79625e-06
1.67136e-06
1.54248e-06
1.41019e-06
1.2777e-06
1.13991e-06
1.00213e-06
8.6114e-07
7.19578e-07
5.7596e-07
4.3121e-07
2.85777e-07
2.13412e-07
1.41599e-07
7.13141e-08
0
)


113
(
0
2.61224e-07
4.73069e-07
6.46908e-07
7.86407e-07
8.93992e-07
9.71902e-07
1.01961e-06
1.04237e-06
1.0438e-06
1.02773e-06
9.98107e-07
9.57958e-07
9.09738e-07
8.55993e-07
7.98882e-07
7.40168e-07
6.82486e-07
6.26186e-07
5.72334e-07
5.21523e-07
4.73628e-07
4.3081e-07
3.90796e-07
3.55152e-07
3.22738e-07
2.93716e-07
2.67681e-07
2.44131e-07
2.23064e-07
2.04418e-07
1.8756e-07
1.72443e-07
1.58968e-07
1.46791e-07
1.36114e-07
1.26533e-07
1.1814e-07
1.10817e-07
1.04646e-07
9.96715e-08
9.58529e-08
9.34278e-08
9.2334e-08
9.27112e-08
9.46696e-08
9.84032e-08
1.04118e-07
1.11834e-07
1.22244e-07
1.35303e-07
1.50801e-07
1.69624e-07
1.92047e-07
2.1749e-07
2.48023e-07
2.83189e-07
3.22533e-07
3.66096e-07
4.16587e-07
4.73277e-07
5.34903e-07
6.0225e-07
6.78104e-07
7.58877e-07
8.45718e-07
9.40649e-07
1.0395e-06
1.1452e-06
1.25547e-06
1.36838e-06
1.48639e-06
1.60503e-06
1.72494e-06
1.84322e-06
1.95989e-06
2.07031e-06
2.17831e-06
2.27217e-06
2.36295e-06
2.43357e-06
2.49756e-06
2.53946e-06
2.56832e-06
2.57645e-06
2.56372e-06
2.5342e-06
2.47579e-06
2.40774e-06
2.30243e-06
2.18618e-06
2.11534e-06
2.0445e-06
1.96806e-06
1.88152e-06
1.79497e-06
1.70377e-06
1.60296e-06
1.50216e-06
1.39442e-06
1.2808e-06
1.16691e-06
1.04655e-06
9.26194e-07
8.00383e-07
6.7359e-07
5.42595e-07
4.10734e-07
2.783e-07
2.12296e-07
1.4643e-07
7.85076e-08
0
)


113
(
0
1.82997e-07
3.20777e-07
4.37216e-07
5.36126e-07
6.17513e-07
6.82013e-07
7.31017e-07
7.66236e-07
7.89412e-07
8.02163e-07
8.05946e-07
8.0263e-07
7.93627e-07
7.79127e-07
7.58782e-07
7.34079e-07
7.07039e-07
6.77794e-07
6.47182e-07
6.15994e-07
5.84422e-07
5.52802e-07
5.22347e-07
4.92731e-07
4.63529e-07
4.36397e-07
4.10786e-07
3.86333e-07
3.6363e-07
3.42638e-07
3.24071e-07
3.06827e-07
2.92255e-07
2.79519e-07
2.68566e-07
2.60094e-07
2.5362e-07
2.49383e-07
2.47193e-07
2.47628e-07
2.49987e-07
2.54849e-07
2.62254e-07
2.72195e-07
2.84315e-07
2.98999e-07
3.1661e-07
3.37249e-07
3.60384e-07
3.86486e-07
4.14695e-07
4.46274e-07
4.8136e-07
5.18474e-07
5.59221e-07
6.02937e-07
6.49555e-07
6.9901e-07
7.52067e-07
8.07167e-07
8.64376e-07
9.2443e-07
9.87085e-07
1.05111e-06
1.11677e-06
1.18404e-06
1.25189e-06
1.32053e-06
1.38906e-06
1.45754e-06
1.52442e-06
1.59037e-06
1.65375e-06
1.71421e-06
1.77179e-06
1.82376e-06
1.87356e-06
1.91359e-06
1.95157e-06
1.9765e-06
1.99787e-06
2.0074e-06
2.00917e-06
1.99859e-06
1.97561e-06
1.94266e-06
1.89205e-06
1.83556e-06
1.75772e-06
1.67268e-06
1.62175e-06
1.57082e-06
1.51577e-06
1.45325e-06
1.39073e-06
1.32467e-06
1.25129e-06
1.1779e-06
1.09927e-06
1.01616e-06
9.32746e-07
8.41549e-07
7.50353e-07
6.54057e-07
5.56842e-07
4.55677e-07
3.52842e-07
2.468e-07
1.92215e-07
1.3418e-07
7.16299e-08
0
)


113
(
0
1.24365e-07
2.18082e-07
2.9645e-07
3.65008e-07
4.24845e-07
4.76402e-07
5.20107e-07
5.56491e-07
5.86167e-07
6.09771e-07
6.27916e-07
6.41185e-07
6.50108e-07
6.55187e-07
6.56679e-07
6.5499e-07
6.50933e-07
6.44874e-07
6.37155e-07
6.28094e-07
6.17992e-07
6.07133e-07
5.95764e-07
5.84004e-07
5.73747e-07
5.63749e-07
5.53703e-07
5.43801e-07
5.34277e-07
5.25759e-07
5.18045e-07
5.1129e-07
5.06383e-07
5.02881e-07
5.01363e-07
4.99986e-07
5.01976e-07
5.04445e-07
5.09351e-07
5.16112e-07
5.23579e-07
5.34084e-07
5.46602e-07
5.60101e-07
5.75532e-07
5.94251e-07
6.12916e-07
6.34846e-07
6.58029e-07
6.83355e-07
7.0995e-07
7.3767e-07
7.66973e-07
7.98333e-07
8.30057e-07
8.64369e-07
8.99596e-07
9.35272e-07
9.72717e-07
1.01091e-06
1.04956e-06
1.0886e-06
1.12795e-06
1.16735e-06
1.20676e-06
1.24534e-06
1.28352e-06
1.32104e-06
1.35689e-06
1.39177e-06
1.42323e-06
1.45316e-06
1.47895e-06
1.50245e-06
1.5237e-06
1.53982e-06
1.55395e-06
1.56269e-06
1.57021e-06
1.56944e-06
1.56628e-06
1.55519e-06
1.53964e-06
1.51696e-06
1.48724e-06
1.45183e-06
1.40617e-06
1.35708e-06
1.2938e-06
1.22611e-06
1.18712e-06
1.14813e-06
1.1066e-06
1.06046e-06
1.01433e-06
9.66014e-07
9.13195e-07
8.60376e-07
8.0436e-07
7.45619e-07
6.86687e-07
6.22885e-07
5.59084e-07
4.91459e-07
4.23134e-07
3.50247e-07
2.74534e-07
1.93725e-07
1.51051e-07
1.04756e-07
5.50299e-08
0
)


113
(
0
8.44428e-08
1.51597e-07
2.08314e-07
2.58583e-07
3.03715e-07
3.44459e-07
3.81321e-07
4.14667e-07
4.44791e-07
4.71945e-07
4.96356e-07
5.18237e-07
5.37785e-07
5.55192e-07
5.70516e-07
5.83898e-07
5.95756e-07
6.06261e-07
6.15571e-07
6.23843e-07
6.31225e-07
6.37861e-07
6.43827e-07
6.49368e-07
6.54604e-07
6.59646e-07
6.64602e-07
6.69573e-07
6.74655e-07
6.79935e-07
6.85496e-07
6.91415e-07
6.97789e-07
7.05195e-07
7.1259e-07
7.20578e-07
7.29194e-07
7.38474e-07
7.48446e-07
7.59134e-07
7.70578e-07
7.82781e-07
7.96122e-07
8.12953e-07
8.30818e-07
8.47904e-07
8.64723e-07
8.81525e-07
8.98249e-07
9.15593e-07
9.31182e-07
9.4816e-07
9.68442e-07
9.90666e-07
1.01072e-06
1.02673e-06
1.0374e-06
1.04499e-06
1.06381e-06
1.08239e-06
1.10072e-06
1.11869e-06
1.13598e-06
1.15276e-06
1.16888e-06
1.18387e-06
1.1981e-06
1.21079e-06
1.22209e-06
1.23258e-06
1.2405e-06
1.24751e-06
1.25213e-06
1.25483e-06
1.25566e-06
1.25331e-06
1.24973e-06
1.24155e-06
1.23248e-06
1.21813e-06
1.2023e-06
1.18159e-06
1.15818e-06
1.13051e-06
1.09869e-06
1.06355e-06
1.02253e-06
9.79558e-07
9.28658e-07
8.75349e-07
8.45888e-07
8.16427e-07
7.85595e-07
7.52282e-07
7.1897e-07
6.84459e-07
6.47468e-07
6.10476e-07
5.71565e-07
5.31016e-07
4.90331e-07
4.46173e-07
4.02016e-07
3.54521e-07
3.06412e-07
2.53899e-07
1.9882e-07
1.39436e-07
1.07996e-07
7.41744e-08
3.84123e-08
0
)


113
(
0
5.9775e-08
1.10763e-07
1.55492e-07
1.96083e-07
2.33374e-07
2.67959e-07
3.00297e-07
3.30732e-07
3.59517e-07
3.86841e-07
4.12846e-07
4.37647e-07
4.61334e-07
4.83988e-07
5.0561e-07
5.26231e-07
5.46028e-07
5.65056e-07
5.83365e-07
6.01004e-07
6.18022e-07
6.34464e-07
6.48081e-07
6.62783e-07
6.77276e-07
6.9134e-07
7.05012e-07
7.18323e-07
7.31306e-07
7.43991e-07
7.56405e-07
7.68573e-07
7.80518e-07
7.92261e-07
8.03814e-07
8.15198e-07
8.26426e-07
8.37508e-07
8.48448e-07
8.59252e-07
8.69917e-07
8.80443e-07
8.90828e-07
9.01066e-07
9.11147e-07
9.21062e-07
9.30796e-07
9.4032e-07
9.49615e-07
9.58668e-07
9.67455e-07
9.75956e-07
9.8415e-07
9.92021e-07
9.9943e-07
1.00641e-06
1.01296e-06
1.01908e-06
1.02456e-06
1.02941e-06
1.03373e-06
1.03741e-06
1.04012e-06
1.04223e-06
1.04356e-06
1.0437e-06
1.04319e-06
1.04149e-06
1.03864e-06
1.03512e-06
1.02962e-06
1.02347e-06
1.01561e-06
1.00647e-06
9.96056e-07
9.83619e-07
9.70398e-07
9.55941e-07
9.40946e-07
9.20905e-07
9.00062e-07
8.76546e-07
8.51611e-07
8.24416e-07
7.95094e-07
7.64057e-07
7.30049e-07
6.95051e-07
6.56035e-07
6.15765e-07
5.94167e-07
5.72568e-07
5.50209e-07
5.26472e-07
5.02735e-07
4.78263e-07
4.52272e-07
4.2628e-07
3.98973e-07
3.70544e-07
3.42013e-07
3.10894e-07
2.79775e-07
2.46123e-07
2.12006e-07
1.7472e-07
1.35762e-07
9.41283e-08
7.22976e-08
4.92159e-08
2.52019e-08
0
)


113
(
0
4.35048e-08
8.29286e-08
1.18977e-07
1.52548e-07
1.83991e-07
2.13599e-07
2.41636e-07
2.68324e-07
2.93844e-07
3.18337e-07
3.41914e-07
3.64663e-07
3.86654e-07
4.07942e-07
4.2853e-07
4.48429e-07
4.6775e-07
4.86517e-07
5.04749e-07
5.22463e-07
5.39673e-07
5.56387e-07
5.72546e-07
5.88237e-07
6.03467e-07
6.18241e-07
6.32563e-07
6.46436e-07
6.59864e-07
6.72848e-07
6.8539e-07
6.97491e-07
7.09152e-07
7.20373e-07
7.31143e-07
7.41473e-07
7.51364e-07
7.60815e-07
7.69823e-07
7.78387e-07
7.86488e-07
7.9413e-07
8.01314e-07
8.08037e-07
8.14294e-07
8.2008e-07
8.2539e-07
8.30184e-07
8.3446e-07
8.38234e-07
8.41495e-07
8.44243e-07
8.46478e-07
8.48204e-07
8.49263e-07
8.49748e-07
8.49701e-07
8.49134e-07
8.47847e-07
8.45905e-07
8.43434e-07
8.40346e-07
8.36393e-07
8.31922e-07
8.26802e-07
8.20745e-07
8.14206e-07
8.06789e-07
7.98575e-07
7.89898e-07
7.79932e-07
7.69558e-07
7.58124e-07
7.45932e-07
7.32995e-07
7.18914e-07
7.04391e-07
6.88348e-07
6.7202e-07
6.54068e-07
6.35691e-07
6.15896e-07
5.95355e-07
5.73626e-07
5.5077e-07
5.27006e-07
5.01628e-07
4.75712e-07
4.47523e-07
4.18586e-07
4.03244e-07
3.87903e-07
3.72083e-07
3.55397e-07
3.38711e-07
3.21545e-07
3.03388e-07
2.85232e-07
2.66209e-07
2.4645e-07
2.26625e-07
2.05144e-07
1.83664e-07
1.60658e-07
1.37373e-07
1.12327e-07
8.6429e-08
5.92121e-08
4.51295e-08
3.04998e-08
1.5485e-08
0
)


113
(
0
2.68134e-08
5.21383e-08
7.60656e-08
9.88517e-08
1.20566e-07
1.41273e-07
1.61051e-07
1.79976e-07
1.98117e-07
2.15536e-07
2.32285e-07
2.48408e-07
2.63942e-07
2.78919e-07
2.9333e-07
3.07177e-07
3.20545e-07
3.33452e-07
3.45913e-07
3.5794e-07
3.69544e-07
3.80735e-07
3.91461e-07
4.01797e-07
4.1175e-07
4.21324e-07
4.30524e-07
4.39354e-07
4.47817e-07
4.55915e-07
4.63652e-07
4.71028e-07
4.78046e-07
4.84707e-07
4.91004e-07
4.96946e-07
5.02537e-07
5.07778e-07
5.12667e-07
5.17207e-07
5.21385e-07
5.25206e-07
5.28674e-07
5.31791e-07
5.34556e-07
5.36968e-07
5.39028e-07
5.40711e-07
5.42019e-07
5.42969e-07
5.43558e-07
5.43791e-07
5.43673e-07
5.4321e-07
5.42302e-07
5.41019e-07
5.39393e-07
5.37436e-07
5.35025e-07
5.32211e-07
5.29076e-07
5.25568e-07
5.21549e-07
5.17227e-07
5.1253e-07
5.07299e-07
5.01796e-07
4.95802e-07
4.89369e-07
4.82681e-07
4.7529e-07
4.67679e-07
4.59496e-07
4.50907e-07
4.41917e-07
4.32313e-07
4.22472e-07
4.11812e-07
4.00998e-07
3.89301e-07
3.7737e-07
3.64659e-07
3.51531e-07
3.37739e-07
3.23308e-07
3.08364e-07
2.92496e-07
2.76321e-07
2.58846e-07
2.40949e-07
2.31509e-07
2.22068e-07
2.12366e-07
2.0219e-07
1.92014e-07
1.81589e-07
1.70648e-07
1.59707e-07
1.48345e-07
1.36624e-07
1.24874e-07
1.1238e-07
9.98861e-08
8.67636e-08
7.35265e-08
5.96241e-08
4.54245e-08
3.07773e-08
2.32997e-08
1.56537e-08
7.89414e-09
0
)


113
(
0
2.73666e-09
5.4068e-09
8.00783e-09
1.05471e-08
1.30235e-08
1.54361e-08
1.77848e-08
2.00706e-08
2.22945e-08
2.44578e-08
2.65615e-08
2.86067e-08
3.05941e-08
3.25244e-08
3.43942e-08
3.62008e-08
3.79518e-08
3.96477e-08
4.12887e-08
4.28752e-08
4.44074e-08
4.58852e-08
4.73008e-08
4.86632e-08
4.99727e-08
5.12294e-08
5.24333e-08
5.35847e-08
5.46837e-08
5.57303e-08
5.67248e-08
5.76672e-08
5.85578e-08
5.93965e-08
6.01826e-08
6.09173e-08
6.16012e-08
6.22345e-08
6.28174e-08
6.335e-08
6.38308e-08
6.42609e-08
6.46408e-08
6.49711e-08
6.52517e-08
6.54829e-08
6.56649e-08
6.57944e-08
6.58721e-08
6.59006e-08
6.58795e-08
6.58099e-08
6.56925e-08
6.55284e-08
6.53044e-08
6.50303e-08
6.47103e-08
6.43463e-08
6.39225e-08
6.34456e-08
6.29267e-08
6.23591e-08
6.17255e-08
6.10529e-08
6.03321e-08
5.95436e-08
5.87206e-08
5.7836e-08
5.68967e-08
5.59257e-08
5.48688e-08
5.37853e-08
5.2633e-08
5.14327e-08
5.01853e-08
4.88673e-08
4.7522e-08
4.60854e-08
4.46318e-08
4.30833e-08
4.15107e-08
3.98577e-08
3.81639e-08
3.64052e-08
3.45876e-08
3.27227e-08
3.07785e-08
2.88078e-08
2.67337e-08
2.46288e-08
2.35405e-08
2.24522e-08
2.13464e-08
2.02093e-08
1.90721e-08
1.79199e-08
1.67366e-08
1.55533e-08
1.43471e-08
1.31213e-08
1.1894e-08
1.06299e-08
9.36577e-09
8.07329e-09
6.77565e-09
5.45036e-09
4.11357e-09
2.75981e-09
2.07731e-09
1.38892e-09
6.96684e-10
0
)

)


10
(

113
(
0
6.39597e-07
1.21308e-06
1.75316e-06
2.26435e-06
2.75065e-06
3.202e-06
3.58226e-06
3.80649e-06
3.77443e-06
3.42561e-06
2.8425e-06
2.1925e-06
1.62462e-06
1.27077e-06
1.01067e-06
8.245e-07
6.94538e-07
6.0075e-07
5.2825e-07
4.77385e-07
4.345e-07
3.98667e-07
3.69538e-07
3.47231e-07
3.27e-07
3.09333e-07
2.93083e-07
2.775e-07
2.62583e-07
2.48417e-07
2.32273e-07
2.16333e-07
2e-07
1.82364e-07
1.62727e-07
1.41636e-07
1.19927e-07
9.92e-08
7.99273e-08
6.35182e-08
4.974e-08
4.13545e-08
3.738e-08
3.82545e-08
4.32364e-08
5.17364e-08
6.27333e-08
7.53e-08
8.98e-08
1.05338e-07
1.22833e-07
1.41615e-07
1.61e-07
1.81e-07
2.01571e-07
2.23143e-07
2.46e-07
2.68e-07
2.90875e-07
3.14625e-07
3.42875e-07
3.74813e-07
4.14187e-07
4.63471e-07
5.17e-07
5.93111e-07
6.75889e-07
7.85333e-07
9.06333e-07
1.04467e-06
1.18526e-06
1.32737e-06
1.45105e-06
1.56684e-06
1.642e-06
1.707e-06
1.736e-06
1.756e-06
1.744e-06
1.724e-06
1.68e-06
1.63e-06
1.56526e-06
1.49684e-06
1.418e-06
1.338e-06
1.25e-06
1.16111e-06
1.07222e-06
9.81588e-07
9.34235e-07
8.86882e-07
8.39375e-07
7.9125e-07
7.43125e-07
6.95e-07
6.47333e-07
5.99667e-07
5.52e-07
4.98667e-07
4.45333e-07
3.93727e-07
3.43273e-07
2.92556e-07
2.41444e-07
1.90143e-07
1.40167e-07
9.6e-08
7.28125e-08
4.67e-08
2.31e-08
0
)


113
(
0
6.07823e-07
1.16856e-06
1.6766e-06
2.13108e-06
2.51273e-06
2.79774e-06
2.96872e-06
3.01864e-06
2.95605e-06
2.80134e-06
2.57556e-06
2.30641e-06
2.01632e-06
1.73164e-06
1.47106e-06
1.24059e-06
1.04392e-06
8.7784e-07
7.47361e-07
6.45903e-07
5.62903e-07
4.96982e-07
4.441e-07
4.01825e-07
3.67483e-07
3.38191e-07
3.12622e-07
2.89798e-07
2.69025e-07
2.49793e-07
2.31429e-07
2.13813e-07
1.96733e-07
1.80175e-07
1.64273e-07
1.49157e-07
1.35013e-07
1.221e-07
1.10847e-07
1.01382e-07
9.38428e-08
8.85888e-08
8.55434e-08
8.50426e-08
8.6899e-08
9.11312e-08
9.77223e-08
1.06388e-07
1.17102e-07
1.30318e-07
1.45176e-07
1.6189e-07
1.80277e-07
2.00747e-07
2.23587e-07
2.48428e-07
2.75382e-07
3.06872e-07
3.41432e-07
3.79061e-07
4.23743e-07
4.71987e-07
5.26712e-07
5.88758e-07
6.53943e-07
7.29915e-07
8.07631e-07
8.92319e-07
9.78627e-07
1.06736e-06
1.15432e-06
1.24009e-06
1.31786e-06
1.39221e-06
1.45074e-06
1.50531e-06
1.53874e-06
1.56689e-06
1.57228e-06
1.57199e-06
1.55025e-06
1.52314e-06
1.47817e-06
1.42873e-06
1.36407e-06
1.29773e-06
1.22066e-06
1.14164e-06
1.05573e-06
9.68272e-07
9.22728e-07
8.77184e-07
8.31273e-07
7.83891e-07
7.36509e-07
6.89127e-07
6.4036e-07
5.91594e-07
5.42827e-07
4.93127e-07
4.43427e-07
3.93526e-07
3.43489e-07