/*--------------------------------*- C++ -*----------------------------------*\
| =========                 |                                                 |
| \\      /  F ield         | OpenFOAM: The Open Source CFD Toolbox           |
|  \\    /   O peration     | Version:  2.3.0                                 |
|   \\  /    A nd           | Web:      www.OpenFOAM.org                      |
|    \\/     M anipulation  |                                                 |
\*---------------------------------------------------------------------------*/
FoamFile
{
    version     2.0;
    format      ascii;
    class       dictionary;
    location    "constant";
    object      H;
}
// * * * * * * * * * * * * * * * * * * * * * * * * * * * * * * * * * * * * * //

H_table
13
(

10
(

113
(
0
1.08887e-14
1.5018e-13
1.09675e-12
5.14693e-12
1.81643e-11
5.45929e-11
1.79692e-10
4.78821e-10
9.88927e-10
2.30217e-09
4.84718e-09
8.36e-09
1.74418e-08
3.21714e-08
5.50286e-08
1.04459e-07
1.73494e-07
3.05811e-07
5.2765e-07
8.28877e-07
1.43028e-06
2.22099e-06
3.45556e-06
5.28272e-06
7.46832e-06
1.08845e-05
1.48609e-05
1.96435e-05
2.54302e-05
3.15519e-05
3.79894e-05
4.39528e-05
4.95692e-05
5.30283e-05
5.50816e-05
5.52715e-05
5.27715e-05
4.91475e-05
4.37677e-05
3.77051e-05
3.13994e-05
2.55609e-05
2.05623e-05
1.63707e-05
1.34665e-05
1.09279e-05
9.36369e-06
7.97827e-06
6.97286e-06
6.11075e-06
5.41021e-06
4.82062e-06
4.305e-06
3.87421e-06
3.48335e-06
3.16262e-06
2.87054e-06
2.63333e-06
2.42077e-06
2.24257e-06
2.08543e-06
1.94925e-06
1.83243e-06
1.72306e-06
1.62583e-06
1.52881e-06
1.43248e-06
1.33582e-06
1.23127e-06
1.12673e-06
1.00776e-06
8.86036e-07
7.58135e-07
6.26604e-07
5.03241e-07
3.91634e-07
2.8704e-07
2.16686e-07
1.46332e-07
1.07529e-07
7.18458e-08
4.88619e-08
3.30212e-08
2.06388e-08
1.38989e-08
7.77367e-09
5.13147e-09
2.48927e-09
1.50869e-09
5.79502e-10
3.88627e-10
2.84188e-10
1.79749e-10
7.53102e-11
4.62124e-11
3.14652e-11
1.6718e-11
5.61691e-12
3.89159e-12
2.16628e-12
6.22227e-13
4.07451e-13
1.92675e-13
5.94017e-14
2.986e-14
7.30235e-15
2.70358e-15
5.64268e-16
1.54994e-16
5.49229e-17
6.66905e-18
0
)


113
(
0
2.68716e-12
1.85952e-11
8.18584e-11
2.65677e-10
7.03955e-10
1.68096e-09
4.16622e-09
9.09276e-09
1.68533e-08
3.46133e-08
6.5704e-08
1.07269e-07
1.98296e-07
3.2763e-07
5.12088e-07
8.26756e-07
1.21795e-06
1.82381e-06
2.62497e-06
3.59932e-06
5.00225e-06
6.59522e-06
8.59352e-06
1.09429e-05
1.34988e-05
1.65029e-05
1.96122e-05
2.28728e-05
2.61109e-05
2.92654e-05
3.21272e-05
3.45704e-05
3.67271e-05
3.79609e-05
3.87397e-05
3.89154e-05
3.82093e-05
3.71087e-05
3.53627e-05
3.31759e-05
3.0751e-05
2.80328e-05
2.5283e-05
2.25029e-05
1.98836e-05
1.73337e-05
1.50974e-05
1.30045e-05
1.1216e-05
9.63436e-06
8.28592e-06
7.15939e-06
6.18079e-06
5.399e-06
4.70982e-06
4.16855e-06
3.68771e-06
3.30595e-06
2.9687e-06
2.69025e-06
2.44784e-06
2.23609e-06
2.05264e-06
1.88291e-06
1.73555e-06
1.59271e-06
1.46584e-06
1.33941e-06
1.22351e-06
1.10762e-06
9.97522e-07
8.88531e-07
7.8462e-07
6.83694e-07
5.87868e-07
4.99382e-07
4.1383e-07
3.42606e-07
2.71383e-07
2.18201e-07
1.66804e-07
1.27324e-07
9.45475e-08
6.72046e-08
4.8727e-08
3.16466e-08
2.24835e-08
1.33204e-08
9.1189e-09
5.07089e-09
3.97302e-09
3.16762e-09
2.36222e-09
1.55681e-09
1.18455e-09
8.94779e-10
6.05013e-10
3.69865e-10
2.75163e-10
1.8046e-10
9.37487e-11
6.56348e-11
3.75209e-11
1.82993e-11
1.03953e-11
4.07294e-12
1.81807e-12
5.89398e-13
2.56734e-13
1.23531e-13
3.8079e-14
0
)


113
(
0
6.91341e-09
2.05484e-08
4.5431e-08
8.5043e-08
1.43824e-07
2.30103e-07
3.57041e-07
5.23446e-07
7.27549e-07
1.01008e-06
1.35545e-06
1.75021e-06
2.28674e-06
2.88315e-06
3.56572e-06
4.3784e-06
5.25236e-06
6.26671e-06
7.35705e-06
8.51478e-06
9.77345e-06
1.1064e-05
1.24133e-05
1.3786e-05
1.51714e-05
1.65325e-05
1.78562e-05
1.91262e-05
2.02909e-05
2.13897e-05
2.234e-05
2.31486e-05
2.38618e-05
2.43301e-05
2.46821e-05
2.488e-05
2.48441e-05
2.47018e-05
2.43835e-05
2.38991e-05
2.33155e-05
2.25521e-05
2.17124e-05
2.07993e-05
1.97949e-05
1.87623e-05
1.76435e-05
1.65188e-05
1.53816e-05
1.42647e-05
1.31706e-05
1.21154e-05
1.10861e-05
1.01172e-05
9.17659e-06
8.31359e-06
7.48228e-06
6.74462e-06
6.04903e-06
5.42544e-06
4.84598e-06
4.32232e-06
3.85018e-06
3.41666e-06
3.04618e-06
2.69301e-06
2.40124e-06
2.11212e-06
1.88627e-06
1.66043e-06
1.47704e-06
1.30173e-06
1.1499e-06
1.01185e-06
8.85838e-07
7.77151e-07
6.72504e-07
5.87583e-07
5.02662e-07
4.34808e-07
3.68643e-07
3.12456e-07
2.61881e-07
2.16299e-07
1.78861e-07
1.43007e-07
1.1613e-07
8.92537e-08
7.07438e-08
5.24926e-08
4.57775e-08
3.98236e-08
3.38697e-08
2.79158e-08
2.38832e-08
2.02167e-08
1.65501e-08
1.32748e-08
1.10055e-08
8.73627e-09
6.57992e-09
5.25163e-09
3.92333e-09
2.83123e-09
2.03972e-09
1.33329e-09
8.45593e-10
4.68788e-10
3.12458e-10
1.96485e-10
9.35312e-11
0
)


113
(
0
1.18116e-07
2.55795e-07
4.29739e-07
6.40353e-07
8.8817e-07
1.1775e-06
1.51582e-06
1.89128e-06
2.29977e-06
2.76593e-06
3.26652e-06
3.79417e-06
4.38982e-06
5.006e-06
5.65173e-06
6.31885e-06
6.99818e-06
7.71103e-06
8.4268e-06
9.14514e-06
9.8609e-06
1.05763e-05
1.12916e-05
1.19833e-05
1.26606e-05
1.32811e-05
1.38799e-05
1.44476e-05
1.49665e-05
1.54542e-05
1.58703e-05
1.62405e-05
1.65795e-05
1.68238e-05
1.70256e-05
1.71711e-05
1.72417e-05
1.72712e-05
1.72253e-05
1.71264e-05
1.6992e-05
1.67719e-05
1.65123e-05
1.62149e-05
1.58508e-05
1.54677e-05
1.50329e-05
1.4577e-05
1.40763e-05
1.35629e-05
1.3035e-05
1.24918e-05
1.19384e-05
1.13663e-05
1.07852e-05
1.02119e-05
9.6418e-06
9.08679e-06
8.53856e-06
7.99494e-06
7.45414e-06
6.93944e-06
6.44882e-06
5.97029e-06
5.5115e-06
5.06462e-06
4.65996e-06
4.25692e-06
3.8928e-06
3.52869e-06
3.20919e-06
2.8982e-06
2.61549e-06
2.3494e-06
2.1008e-06
1.87737e-06
1.66111e-06
1.47979e-06
1.29848e-06
1.14794e-06
1.00045e-06
8.72042e-07
7.54372e-07
6.46837e-07
5.55838e-07
4.67967e-07
3.9783e-07
3.27692e-07
2.746e-07
2.22036e-07
2.00813e-07
1.81188e-07
1.61563e-07
1.41938e-07
1.26561e-07
1.11993e-07
9.74245e-08
8.39079e-08
7.30955e-08
6.2283e-08
5.17995e-08
4.37276e-08
3.56557e-08
2.84442e-08
2.23277e-08
1.6583e-08
1.17943e-08
7.52348e-09
5.5349e-09
3.7003e-09
1.87881e-09
0
)


113
(
0
2.87009e-07
5.60907e-07
8.48735e-07
1.15646e-06
1.48482e-06
1.83488e-06
2.20721e-06
2.59417e-06
2.99347e-06
3.41092e-06
3.83706e-06
4.27002e-06
4.71385e-06
5.16004e-06
5.60965e-06
6.05957e-06
6.50869e-06
6.95352e-06
7.39272e-06
7.82691e-06
8.24673e-06
8.65952e-06
9.05683e-06
9.44596e-06
9.82988e-06
1.01839e-05
1.05216e-05
1.0836e-05
1.11225e-05
1.1392e-05
1.16235e-05
1.18416e-05
1.20496e-05
1.21822e-05
1.23075e-05
1.24231e-05
1.24882e-05
1.25361e-05
1.25619e-05
1.25563e-05
1.25312e-05
1.24664e-05
1.23855e-05
1.22891e-05
1.21569e-05
1.20146e-05
1.18457e-05
1.16584e-05
1.14317e-05
1.12026e-05
1.09708e-05
1.07095e-05
1.04286e-05
1.01399e-05
9.84766e-06
9.54928e-06
9.2484e-06
8.92882e-06
8.60083e-06
8.26735e-06
7.9305e-06
7.59189e-06
7.25167e-06
6.91477e-06
6.58329e-06
6.25414e-06
5.93325e-06
5.61254e-06
5.29631e-06
4.98008e-06
4.67014e-06
4.36138e-06
4.07234e-06
3.79488e-06
3.52164e-06
3.25447e-06
2.99268e-06
2.75715e-06
2.52161e-06
2.30804e-06
2.09664e-06
1.90089e-06
1.71395e-06
1.53613e-06
1.37318e-06
1.21367e-06
1.07358e-06
9.33501e-07
8.13912e-07
6.94958e-07
6.4267e-07
5.92653e-07
5.42635e-07
4.92617e-07
4.495e-07
4.07698e-07
3.65895e-07
3.26038e-07
2.91183e-07
2.56327e-07
2.2215e-07
1.92945e-07
1.6374e-07
1.36392e-07
1.11408e-07
8.7166e-08
6.48349e-08
4.32498e-08
3.2649e-08
2.20437e-08
1.12496e-08
0
)


113
(
0
3.53687e-07
6.72456e-07
9.7754e-07
1.27963e-06
1.58256e-06
1.88837e-06
2.19797e-06
2.50983e-06
2.82347e-06
3.1386e-06
3.45326e-06
3.76755e-06
4.07842e-06
4.38683e-06
4.69172e-06
4.98989e-06
5.28458e-06
5.57045e-06
5.84967e-06
6.12299e-06
6.38342e-06
6.63831e-06
6.88149e-06
7.11374e-06
7.33948e-06
7.54738e-06
7.74744e-06
7.9362e-06
8.10909e-06
8.27373e-06
8.42225e-06
8.55804e-06
8.68514e-06
8.78525e-06
8.87882e-06
8.96372e-06
9.03066e-06
9.08877e-06
9.13158e-06
9.16021e-06
9.18004e-06
9.18203e-06
9.21267e-06
9.27084e-06
9.27046e-06
9.25447e-06
9.20231e-06
9.14201e-06
9.06438e-06
8.9686e-06
8.85234e-06
8.72091e-06
8.57937e-06
8.40961e-06
8.22656e-06
7.99667e-06
7.74764e-06
7.54892e-06
7.3728e-06
7.18888e-06
7.00017e-06
6.80602e-06
6.60686e-06
6.4046e-06
6.19727e-06
5.98833e-06
5.77369e-06
5.55896e-06
5.34172e-06
5.12449e-06
4.90672e-06
4.68885e-06
4.47193e-06
4.25556e-06
4.04067e-06
3.82788e-06
3.61603e-06
3.4088e-06
3.20158e-06
3.00111e-06
2.8013e-06
2.60731e-06
2.41659e-06
2.22986e-06
2.04964e-06
1.87116e-06
1.70255e-06
1.53395e-06
1.37736e-06
1.22115e-06
1.14786e-06
1.07608e-06
1.00431e-06
9.3254e-07
8.65916e-07
8.00273e-07
7.3463e-07
6.70523e-07
6.10369e-07
5.50215e-07
4.90579e-07
4.34744e-07
3.78909e-07
3.24228e-07
2.71014e-07
2.17988e-07
1.65447e-07
1.12253e-07
8.54132e-08
5.77259e-08
2.9409e-08
0
)


113
(
0
3.16916e-07
6.02582e-07
8.67146e-07
1.11894e-06
1.36175e-06
1.59746e-06
1.82733e-06
2.05359e-06
2.27684e-06
2.49528e-06
2.71071e-06
2.9238e-06
3.13102e-06
3.33556e-06
3.53624e-06
3.73109e-06
3.92313e-06
4.10849e-06
4.28927e-06
4.46598e-06
4.6344e-06
4.79294e-06
4.92599e-06
5.06506e-06
5.20729e-06
5.33864e-06
5.46532e-06
5.58527e-06
5.69596e-06
5.80186e-06
5.8985e-06
5.98789e-06
6.07241e-06
6.14525e-06
6.21296e-06
6.27388e-06
6.32471e-06
6.37057e-06
6.4078e-06
6.43698e-06
6.46113e-06
6.47503e-06
6.48289e-06
6.48495e-06
6.4769e-06
6.46558e-06
6.44345e-06
6.41742e-06
6.38309e-06
6.34309e-06
6.29672e-06
6.24329e-06
6.18516e-06
6.11919e-06
6.04955e-06
5.97197e-06
5.89116e-06
5.80296e-06
5.71142e-06
5.6136e-06
5.51192e-06
5.40533e-06
5.2942e-06
5.17977e-06
5.05997e-06
4.93845e-06
4.81087e-06
4.68301e-06
4.54858e-06
4.41415e-06
4.27482e-06
4.13455e-06
3.99128e-06
3.84624e-06
3.69969e-06
3.55097e-06
3.40285e-06
3.25774e-06
3.11262e-06
2.95872e-06
2.80395e-06
2.64951e-06
2.49525e-06
2.34159e-06
2.1889e-06
2.03659e-06
1.88643e-06
1.73626e-06
1.58923e-06
1.44229e-06
1.37013e-06
1.29839e-06
1.22664e-06
1.1549e-06
1.0844e-06
1.01415e-06
9.4389e-07
8.73863e-07
8.04428e-07
7.34992e-07
6.65526e-07
5.95836e-07
5.26146e-07
4.55765e-07
3.84506e-07
3.12481e-07
2.38483e-07
1.62295e-07
1.23513e-07
8.33018e-08
4.22801e-08
0
)


113
(
0
2.26076e-07
4.34168e-07
6.27146e-07
8.0893e-07
9.81471e-07
1.14549e-06
1.30145e-06
1.45217e-06
1.59846e-06
1.73789e-06
1.87351e-06
2.00614e-06
2.13239e-06
2.25612e-06
2.37624e-06
2.49158e-06
2.60471e-06
2.71291e-06
2.81797e-06
2.92025e-06
3.01718e-06
3.11196e-06
3.20231e-06
3.28882e-06
3.37303e-06
3.45129e-06
3.52704e-06
3.59917e-06
3.66638e-06
3.73105e-06
3.79084e-06
3.84681e-06
3.90022e-06
3.94751e-06
3.99211e-06
4.03314e-06
4.06887e-06
4.10199e-06
4.13055e-06
4.15483e-06
4.17645e-06
4.1926e-06
4.2055e-06
4.21527e-06
4.21955e-06
4.22206e-06
4.2186e-06
4.21297e-06
4.20271e-06
4.18923e-06
4.17213e-06
4.15094e-06
4.12703e-06
4.09846e-06
4.06772e-06
4.03214e-06
3.99459e-06
3.95239e-06
3.90809e-06
3.85968e-06
3.80876e-06
3.75448e-06
3.6971e-06
3.63735e-06
3.57374e-06
3.50882e-06
3.43927e-06
3.36948e-06
3.29428e-06
3.21908e-06
3.13944e-06
3.05895e-06
2.97538e-06
2.88998e-06
2.80273e-06
2.71281e-06
2.62219e-06
2.52812e-06
2.43406e-06
2.33656e-06
2.23873e-06
2.1387e-06
2.03745e-06
1.93499e-06
1.83058e-06
1.72572e-06
1.61829e-06
1.51085e-06
1.40038e-06
1.28982e-06
1.2332e-06
1.17616e-06
1.11911e-06
1.06207e-06
1.00324e-06
9.44081e-07
8.84917e-07
8.25018e-07
7.63228e-07
7.01439e-07
6.39267e-07
5.74291e-07
5.09314e-07
4.42743e-07
3.74142e-07
3.04496e-07
2.32165e-07
1.57607e-07
1.19649e-07
8.04783e-08
4.06921e-08
0
)


113
(
0
1.17299e-07
2.28172e-07
3.329e-07
4.32523e-07
5.27543e-07
6.17954e-07
7.03589e-07
7.8593e-07
8.6543e-07
9.40326e-07
1.0126e-06
1.08281e-06
1.14861e-06
1.21269e-06
1.27433e-06
1.33281e-06
1.38987e-06
1.44382e-06
1.49589e-06
1.54628e-06
1.59361e-06
1.63974e-06
1.68346e-06
1.72516e-06
1.76567e-06
1.80318e-06
1.83948e-06
1.87402e-06
1.90623e-06
1.93727e-06
1.96606e-06
1.99315e-06
2.01908e-06
2.0423e-06
2.06436e-06
2.08486e-06
2.10307e-06
2.12017e-06
2.13531e-06
2.14864e-06
2.16084e-06
2.17071e-06
2.1792e-06
2.18637e-06
2.1912e-06
2.19527e-06
2.1968e-06
2.1974e-06
2.196e-06
2.19321e-06
2.18885e-06
2.18269e-06
2.17534e-06
2.16591e-06
2.15551e-06
2.14292e-06
2.12943e-06
2.11378e-06
2.09716e-06
2.07858e-06
2.05879e-06
2.03736e-06
2.0144e-06
1.99022e-06
1.96407e-06
1.93722e-06
1.90787e-06
1.87839e-06
1.84584e-06
1.81329e-06
1.77804e-06
1.74227e-06
1.70446e-06
1.66545e-06
1.6251e-06
1.5828e-06
1.53993e-06
1.49426e-06
1.44858e-06
1.39971e-06
1.35053e-06
1.299e-06
1.24615e-06
1.19183e-06
1.13511e-06
1.07778e-06
1.01694e-06
9.56102e-07
8.90978e-07
8.25723e-07
7.91301e-07
7.56312e-07
7.21324e-07
6.86335e-07
6.49255e-07
6.11776e-07
5.74297e-07
5.36097e-07
4.96043e-07
4.55989e-07
4.15627e-07
3.73001e-07
3.30374e-07
2.86679e-07
2.41622e-07
1.9597e-07
1.48787e-07
1.0049e-07
7.60061e-08
5.09705e-08
2.56725e-08
0
)


113
(
0
9.45807e-09
1.86865e-08
2.76739e-08
3.6443e-08
4.50004e-08
5.33305e-08
6.14033e-08
6.92854e-08
7.69989e-08
8.44186e-08
9.16576e-08
9.87547e-08
1.05526e-07
1.12163e-07
1.18607e-07
1.24791e-07
1.30855e-07
1.3665e-07
1.42275e-07
1.4775e-07
1.52941e-07
1.58019e-07
1.62867e-07
1.67519e-07
1.72056e-07
1.76297e-07
1.80416e-07
1.8436e-07
1.88069e-07
1.91659e-07
1.95021e-07
1.98207e-07
2.01276e-07
2.04067e-07
2.06737e-07
2.09247e-07
2.1152e-07
2.13676e-07
2.15631e-07
2.17396e-07
2.19042e-07
2.20446e-07
2.21705e-07
2.22826e-07
2.237e-07
2.24494e-07
2.25019e-07
2.25444e-07
2.25657e-07
2.25721e-07
2.25615e-07
2.25315e-07
2.24885e-07
2.24228e-07
2.23465e-07
2.22459e-07
2.21354e-07
2.20006e-07
2.18549e-07
2.16869e-07
2.15053e-07
2.13045e-07
2.10861e-07
2.08535e-07
2.05976e-07
2.03333e-07
2.00393e-07
1.97438e-07
1.9411e-07
1.90782e-07
1.87123e-07
1.834e-07
1.79426e-07
1.75303e-07
1.71013e-07
1.66482e-07
1.6188e-07
1.56932e-07
1.51983e-07
1.46647e-07
1.41272e-07
1.35619e-07
1.2981e-07
1.23836e-07
1.1759e-07
1.11278e-07
1.04594e-07
9.79109e-08
9.08084e-08
8.36929e-08
7.99764e-08
7.62098e-08
7.24432e-08
6.86765e-08
6.47448e-08
6.07815e-08
5.68183e-08
5.28047e-08
4.86615e-08
4.45184e-08
4.03561e-08
3.60539e-08
3.17518e-08
2.73907e-08
2.29548e-08
1.84893e-08
1.39476e-08
9.35483e-09
7.04323e-09
4.70781e-09
2.36152e-09
0
)

)


10
(

113
(
0
2.47801e-13
2.85182e-12
1.956e-11
8.38834e-11
3.03227e-10
9.98304e-10
3.01524e-09
8.22546e-09
2.00932e-08
4.42308e-08
8.89424e-08
1.65851e-07
2.90518e-07
4.82863e-07
7.78894e-07
1.23474e-06
1.88543e-06
2.78644e-06
4.00086e-06
5.59836e-06
7.65376e-06
1.02478e-05
1.3558e-05
1.75509e-05
2.2268e-05
2.77167e-05
3.38752e-05
4.06805e-05
4.80098e-05
5.56738e-05
6.34158e-05
7.09003e-05
7.76835e-05
8.32566e-05
8.69899e-05
8.8361e-05
8.69618e-05
8.26191e-05
7.55418e-05
6.63774e-05
5.61696e-05
4.61124e-05
3.70639e-05
2.94619e-05
2.33911e-05
1.873e-05
1.52439e-05
1.27244e-05
1.08822e-05
9.49333e-06
8.42115e-06
7.55996e-06
6.83687e-06
6.20128e-06
5.62417e-06
5.0684e-06
4.52445e-06
3.98845e-06
3.46305e-06
2.95681e-06
2.47271e-06
2.02003e-06
1.6282e-06
1.27669e-06
9.76914e-07
7.48235e-07
5.51658e-07
4.08755e-07
3.00239e-07
2.11659e-07
1.58202e-07
1.11733e-07
8.20225e-08
5.89077e-08
4.2284e-08
3.1005e-08
2.17942e-08
1.63381e-08
1.143e-08
8.61458e-09
6.08054e-09
4.4833e-09
3.14393e-09
2.21472e-09
1.50498e-09
9.71925e-10
6.26592e-10
3.43835e-10
2.12197e-10
1.05278e-10
7.9849e-11
5.44202e-11
3.49257e-11
2.61662e-11
1.74068e-11
1.05586e-11
7.66174e-12
4.76486e-12
2.90883e-12
1.93945e-12
9.94446e-13
6.6671e-13
3.38975e-13
1.94861e-13
8.32229e-14
4.33308e-14
1.6284e-14
4.6087e-15
1.73803e-15
5.83329e-16
7.71866e-17
0
)


113
(
0
4.24449e-11
2.89825e-10
1.26357e-09
3.83727e-09
9.812e-09
2.22779e-08
4.64839e-08
9.03706e-08
1.64564e-07
2.83496e-07
4.65211e-07
7.31502e-07
1.10826e-06
1.62486e-06
2.33093e-06
3.29041e-06
4.52207e-06
6.06592e-06
7.96014e-06
1.02394e-05
1.29316e-05
1.60555e-05
1.96766e-05
2.36933e-05
2.80599e-05
3.27034e-05
3.75231e-05
4.24005e-05
4.7194e-05
5.17389e-05
5.58754e-05
5.94267e-05
6.22457e-05
6.42096e-05
6.51834e-05
6.51674e-05
6.41635e-05
6.22148e-05
5.94388e-05
5.59525e-05
5.1919e-05
4.75167e-05
4.29102e-05
3.82816e-05
3.37837e-05
2.95199e-05
2.55611e-05
2.1991e-05
1.88449e-05
1.60996e-05
1.37376e-05
1.17197e-05
1.00045e-05
8.55244e-06
7.37453e-06
6.37455e-06
5.50944e-06
4.75594e-06
4.1212e-06
3.56516e-06
3.06325e-06
2.61698e-06
2.23258e-06
1.88066e-06
1.56758e-06
1.30339e-06
1.06235e-06
8.61264e-07
6.91078e-07
5.38805e-07
4.27214e-07
3.25892e-07
2.50407e-07
1.88263e-07
1.39249e-07
1.03792e-07
7.35807e-08
5.47918e-08
3.77396e-08
2.78994e-08
1.90982e-08
1.37561e-08
9.38538e-09
6.55967e-09
4.47786e-09
2.99494e-09
2.04134e-09
1.26418e-09
8.61983e-10
5.20726e-10
4.19176e-10
3.17626e-10
2.34639e-10
1.85232e-10
1.35825e-10
9.51235e-11
7.24203e-11
4.97171e-11
3.38658e-11
2.38514e-11
1.40564e-11
9.81711e-12
5.57784e-12
3.45478e-12
1.70739e-12
9.60476e-13
4.28603e-13
1.61087e-13
8.33886e-14
4.12276e-14
1.43754e-14
0
)


113
(
0
2.27382e-08
6.50969e-08
1.38541e-07
2.49417e-07
4.09998e-07
6.35975e-07
9.38768e-07
1.33395e-06
1.83365e-06
2.45411e-06
3.20778e-06
4.10311e-06
5.14734e-06
6.34631e-06
7.71301e-06
9.26034e-06
1.09631e-05
1.28122e-05
1.47953e-05
1.68966e-05
1.90966e-05
2.13713e-05
2.36953e-05
2.60244e-05
2.83321e-05
3.05815e-05
3.27372e-05
3.47632e-05
3.66289e-05
3.83105e-05
3.97725e-05
4.09911e-05
4.19595e-05
4.26429e-05
4.30562e-05
4.31846e-05
4.30252e-05
4.25976e-05
4.19046e-05
4.09811e-05
3.98181e-05
3.84696e-05
3.69521e-05
3.52758e-05
3.34861e-05
3.16319e-05
2.97075e-05
2.77381e-05
2.57672e-05
2.38147e-05
2.19064e-05
2.00477e-05
1.82479e-05
1.65247e-05
1.49156e-05
1.34062e-05
1.19879e-05
1.06577e-05
9.44915e-06
8.34812e-06
7.33039e-06
6.4073e-06
5.60263e-06
4.86188e-06
4.19823e-06
3.63045e-06
3.10706e-06
2.6592e-06
2.26777e-06
1.90907e-06
1.62394e-06
1.35773e-06
1.13927e-06
9.4704e-07
7.8063e-07
6.45117e-07
5.2156e-07
4.28564e-07
3.40609e-07
2.76738e-07
2.17305e-07
1.72645e-07
1.33522e-07
1.03204e-07
7.85768e-08
5.85297e-08
4.39628e-08
3.12227e-08
2.31289e-08
1.60103e-08
1.35712e-08
1.1132e-08
9.03285e-09
7.54863e-09
6.06442e-09
4.78112e-09
3.91322e-09
3.04532e-09
2.36864e-09
1.85486e-09
1.34902e-09
1.04435e-09
7.39685e-10
5.37771e-10
3.54259e-10
2.39175e-10
1.44544e-10
7.74586e-11
5.14538e-11
3.17104e-11
1.49699e-11
0
)


113
(
0
2.49477e-07
5.35452e-07
8.92738e-07
1.31943e-06
1.81907e-06
2.39447e-06
3.04679e-06
3.77563e-06
4.57916e-06
5.45444e-06
6.39771e-06
7.41217e-06
8.49563e-06
9.63002e-06
1.08065e-05
1.20214e-05
1.32679e-05
1.45279e-05
1.57961e-05
1.70642e-05
1.83144e-05
1.95475e-05
2.07554e-05
2.19333e-05
2.30619e-05
2.41314e-05
2.51348e-05
2.60664e-05
2.69211e-05
2.76916e-05
2.83674e-05
2.89392e-05
2.94144e-05
2.9782e-05
3.00434e-05
3.01928e-05
3.02525e-05
3.02084e-05
3.00511e-05
2.98036e-05
2.94514e-05
2.90162e-05
2.84904e-05
2.78905e-05
2.721e-05
2.64643e-05
2.56691e-05
2.48158e-05
2.39058e-05
2.2964e-05
2.20003e-05
2.10076e-05
1.9994e-05
1.89838e-05
1.79697e-05
1.69567e-05
1.59487e-05
1.49489e-05
1.39683e-05
1.30186e-05
1.20941e-05
1.11996e-05
1.03435e-05
9.51379e-06
8.71845e-06
7.97492e-06
7.25863e-06
6.59248e-06
5.96771e-06
5.36691e-06
4.83101e-06
4.31469e-06
3.84903e-06
3.41685e-06
3.01764e-06
2.6624e-06
2.32417e-06
2.03606e-06
1.75685e-06
1.52496e-06
1.30364e-06
1.11751e-06
9.46053e-07
7.97933e-07
6.67456e-07
5.51181e-07
4.54852e-07
3.65172e-07
2.9756e-07
2.35088e-07
2.09784e-07
1.8448e-07
1.61474e-07
1.42625e-07
1.23775e-07
1.0651e-07
9.25183e-08
7.85269e-08
6.64736e-08
5.60713e-08
4.57683e-08
3.79782e-08
3.0188e-08
2.39966e-08
1.80934e-08
1.34997e-08
9.36336e-09
5.85333e-09
4.27552e-09
2.83058e-09
1.4256e-09
0
)


113
(
0
5.51493e-07
1.07238e-06
1.61765e-06
2.19753e-06
2.81499e-06
3.46899e-06
4.15619e-06
4.87229e-06
5.61286e-06
6.37369e-06
7.1508e-06
7.94041e-06
8.73894e-06
9.54287e-06
1.03486e-05
1.11513e-05
1.19475e-05
1.27338e-05
1.35068e-05
1.42633e-05
1.50001e-05
1.57138e-05
1.63969e-05
1.70577e-05
1.77248e-05
1.8349e-05
1.89201e-05
1.94458e-05
1.99234e-05
2.03488e-05
2.07134e-05
2.10546e-05
2.13494e-05
2.15887e-05
2.17637e-05
2.19111e-05
2.20053e-05
2.20398e-05
2.20323e-05
2.19801e-05
2.18827e-05
2.17439e-05
2.1559e-05
2.13318e-05
2.10667e-05
2.07725e-05
2.04281e-05
2.00643e-05
1.96595e-05
1.92261e-05
1.8769e-05
1.82884e-05
1.77871e-05
1.72707e-05
1.67299e-05
1.61681e-05
1.55997e-05
1.50288e-05
1.44455e-05
1.38555e-05
1.32629e-05
1.26695e-05
1.20767e-05
1.14866e-05
1.09006e-05
1.03236e-05
9.75459e-06
9.20363e-06
8.65457e-06
8.10662e-06
7.58815e-06
7.07695e-06
6.584e-06
6.10297e-06
5.63365e-06
5.1931e-06
4.76368e-06
4.36887e-06
3.98025e-06
3.62459e-06
3.27722e-06
2.95744e-06
2.65128e-06
2.36678e-06
2.10108e-06
1.85052e-06
1.62393e-06
1.40532e-06
1.2159e-06
1.03458e-06
9.53323e-07
8.72066e-07
7.95016e-07
7.25578e-07
6.5614e-07
5.90061e-07
5.30924e-07
4.71787e-07
4.17398e-07
3.67052e-07
3.16983e-07
2.73916e-07
2.30849e-07
1.92659e-07
1.55349e-07
1.22122e-07
9.02037e-08
5.993e-08
4.51594e-08
3.04451e-08
1.55067e-08
0
)


113
(
0
6.55474e-07
1.24194e-06
1.80189e-06
2.35485e-06
2.90822e-06
3.46527e-06
4.02672e-06
4.59175e-06
5.15879e-06
5.72598e-06
6.29145e-06
6.85338e-06
7.41007e-06
7.9599e-06
8.5006e-06
9.02968e-06
9.54693e-06
1.00511e-05
1.05412e-05
1.10159e-05
1.14742e-05
1.1915e-05
1.23345e-05
1.27347e-05
1.31147e-05
1.3474e-05
1.38118e-05
1.41276e-05
1.44208e-05
1.46909e-05
1.49377e-05
1.51608e-05
1.536e-05
1.5535e-05
1.56849e-05
1.58107e-05
1.59128e-05
1.59912e-05
1.60462e-05
1.60782e-05
1.60868e-05
1.60729e-05
1.60641e-05
1.61984e-05
1.61756e-05
1.61052e-05
1.60117e-05
1.58727e-05
1.57052e-05
1.55135e-05
1.52889e-05
1.50426e-05
1.47783e-05
1.44875e-05
1.41827e-05
1.38329e-05
1.3406e-05
1.29293e-05
1.26072e-05
1.22749e-05
1.19353e-05
1.15877e-05
1.12311e-05
1.087e-05
1.05037e-05
1.01429e-05
9.7779e-06
9.39813e-06
9.01746e-06
8.63629e-06
8.25587e-06
7.87624e-06
7.49889e-06
7.12423e-06
6.75222e-06
6.3857e-06
6.0213e-06
5.66583e-06
5.31216e-06
4.96947e-06
4.62995e-06
4.301e-06
3.97798e-06
3.66436e-06
3.35996e-06
3.06298e-06
2.77918e-06
2.49978e-06
2.23838e-06
1.98253e-06
1.86107e-06
1.7396e-06
1.62134e-06
1.50885e-06
1.39636e-06
1.28662e-06
1.18257e-06
1.07852e-06
9.78505e-07
8.81937e-07
7.856e-07
6.95088e-07
6.04577e-07
5.17647e-07
4.31357e-07
3.47154e-07
2.62999e-07
1.78364e-07
1.35547e-07
9.1647e-08
4.66547e-08
0
)


113
(
0
5.75542e-07
1.09182e-06
1.56905e-06
2.02261e-06
2.45885e-06
2.88203e-06
3.29506e-06
3.69972e-06
4.09703e-06
4.48743e-06
4.87106e-06
5.24783e-06
5.6175e-06
5.97978e-06
6.3337e-06
6.67825e-06
7.01401e-06
7.34062e-06
7.65769e-06
7.96486e-06
8.26178e-06
8.54809e-06
8.76928e-06
9.01696e-06
9.25863e-06
9.48786e-06
9.70444e-06
9.90815e-06
1.00988e-05
1.02763e-05
1.04405e-05
1.05912e-05
1.07285e-05
1.08523e-05
1.09623e-05
1.10587e-05
1.11418e-05
1.12117e-05
1.12683e-05
1.13119e-05
1.13421e-05
1.13592e-05
1.13637e-05
1.13556e-05
1.13353e-05
1.13028e-05
1.12586e-05
1.12019e-05
1.11333e-05
1.10535e-05
1.09628e-05
1.08616e-05
1.07504e-05
1.06296e-05
1.0497e-05
1.03548e-05
1.02042e-05
1.00457e-05
9.87688e-06
9.69952e-06
9.51561e-06
9.32435e-06
9.12378e-06
8.91809e-06
8.70618e-06
8.48632e-06
8.2627e-06
8.0326e-06
7.79746e-06
7.55941e-06
7.31455e-06
7.06789e-06
6.81671e-06
6.56301e-06
6.30685e-06
6.04795e-06
5.78801e-06
5.54436e-06
5.30036e-06
5.03227e-06
4.76445e-06
4.49756e-06
4.23161e-06
3.96714e-06
3.70464e-06
3.44372e-06
3.18622e-06
2.92986e-06
2.6787e-06
2.42922e-06
2.30643e-06
2.18364e-06
2.06178e-06
1.9416e-06
1.82143e-06
1.70193e-06
1.58383e-06
1.46574e-06
1.34827e-06
1.23135e-06
1.11441e-06
9.97384e-07
8.80353e-07
7.61984e-07
6.43358e-07
5.21786e-07
3.98165e-07
2.7104e-07
2.06023e-07
1.39051e-07
7.05396e-08
0
)


113
(
0
4.0543e-07
7.77519e-07
1.12211e-06
1.4465e-06
1.75354e-06
2.04552e-06
2.32449e-06
2.59212e-06
2.84974e-06
3.09837e-06
3.33874e-06
3.57143e-06
3.79685e-06
4.01531e-06
4.22654e-06
4.43036e-06
4.62769e-06
4.81857e-06
5.00303e-06
5.18106e-06
5.35261e-06
5.51764e-06
5.67508e-06
5.82595e-06
5.97021e-06
6.10778e-06
6.2386e-06
6.36261e-06
6.47977e-06
6.59001e-06
6.69331e-06
6.78961e-06
6.8789e-06
6.96115e-06
7.03618e-06
7.10416e-06
7.16517e-06
7.2192e-06
7.26628e-06
7.30643e-06
7.33947e-06
7.36555e-06
7.38478e-06
7.39726e-06
7.40303e-06
7.40216e-06
7.39475e-06
7.3804e-06
7.35929e-06
7.33183e-06
7.29806e-06
7.25816e-06
7.21234e-06
7.16078e-06
7.10202e-06
7.03735e-06
6.96738e-06
6.89238e-06
6.8107e-06
6.72328e-06
6.6314e-06
6.53444e-06
6.43083e-06
6.32343e-06
6.21139e-06
6.09313e-06
5.97181e-06
5.84512e-06
5.71395e-06
5.58019e-06
5.43983e-06
5.29757e-06
5.15041e-06
5.0001e-06
4.84671e-06
4.68909e-06
4.52983e-06
4.36562e-06
4.20053e-06
4.0308e-06
3.86e-06
3.68564e-06
3.50965e-06
3.33105e-06
3.15023e-06
2.96763e-06
2.78212e-06
2.59563e-06
2.40517e-06
2.21337e-06
2.11592e-06
2.01847e-06
1.92011e-06
1.82011e-06
1.7201e-06
1.61909e-06
1.51603e-06
1.41296e-06
1.30791e-06
1.20118e-06
1.09428e-06
9.83242e-07
8.72207e-07
7.57076e-07
6.41192e-07
5.20306e-07
3.96897e-07
2.69538e-07
2.04412e-07
1.37583e-07
6.95402e-08
0
)


113
(
0
2.08237e-07
4.04767e-07
5.90257e-07
7.66695e-07
9.3459e-07
1.09443e-06
1.24679e-06
1.39224e-06
1.53132e-06
1.66449e-06
1.79214e-06
1.91462e-06
2.03219e-06
2.1451e-06
2.25325e-06
2.35662e-06
2.45591e-06
2.55127e-06
2.64279e-06
2.73057e-06
2.8147e-06
2.89524e-06
2.97174e-06
3.04484e-06
3.11459e-06
3.18104e-06
3.24421e-06
3.30414e-06
3.36087e-06
3.41442e-06
3.46481e-06
3.51207e-06
3.55623e-06
3.5973e-06
3.63523e-06
3.67013e-06
3.70202e-06
3.73094e-06
3.7569e-06
3.77992e-06
3.79992e-06
3.81697e-06
3.83111e-06
3.84239e-06
3.85082e-06
3.85641e-06
3.85921e-06
3.85902e-06
3.8559e-06
3.85003e-06
3.84139e-06
3.83005e-06
3.81608e-06
3.79955e-06
3.77975e-06
3.75725e-06
3.7323e-06
3.70499e-06
3.67453e-06
3.64129e-06
3.60588e-06
3.56795e-06
3.52665e-06
3.4834e-06
3.43771e-06
3.38866e-06
3.33792e-06
3.28416e-06
3.22775e-06
3.16981e-06
3.10776e-06
3.04445e-06
2.97787e-06
2.90905e-06
2.838e-06
2.76363e-06
2.68799e-06
2.60805e-06
2.5273e-06
2.44204e-06
2.3556e-06
2.26527e-06
2.17289e-06
2.07727e-06
1.97859e-06
1.87744e-06
1.77192e-06
1.66496e-06
1.55191e-06
1.4369e-06
1.37711e-06
1.31733e-06
1.25633e-06
1.19314e-06
1.12996e-06
1.06562e-06
9.98909e-07
9.32194e-07
8.63535e-07
7.9322e-07
7.22768e-07
6.48878e-07
5.74988e-07
4.98185e-07
4.20851e-07
3.40425e-07
2.58616e-07
1.7472e-07
1.32053e-07
8.85999e-08
4.4615e-08
0
)


113
(
0
1.66589e-08
3.29064e-08
4.87265e-08
6.41651e-08
7.9215e-08
9.38702e-08
1.08132e-07
1.22004e-07
1.35496e-07
1.48613e-07
1.61363e-07
1.73753e-07
1.85786e-07
1.97469e-07
2.08779e-07
2.197e-07
2.30279e-07
2.4052e-07
2.50424e-07
2.59993e-07
2.69229e-07
2.78131e-07
2.86652e-07
2.94848e-07
3.02719e-07
3.10267e-07
3.17493e-07
3.24398e-07
3.30981e-07
3.37246e-07
3.43193e-07
3.48821e-07
3.54134e-07
3.59131e-07
3.63807e-07
3.68171e-07
3.72226e-07
3.75974e-07
3.79415e-07
3.82551e-07
3.85373e-07
3.87887e-07
3.90097e-07
3.92007e-07
3.93616e-07
3.94926e-07
3.95939e-07
3.96635e-07
3.97018e-07
3.97104e-07
3.96892e-07
3.96387e-07
3.95594e-07
3.94521e-07
3.93088e-07
3.91353e-07
3.89343e-07
3.87068e-07
3.84435e-07
3.81484e-07
3.78281e-07
3.74788e-07
3.70898e-07
3.66776e-07
3.62367e-07
3.57552e-07
3.52533e-07
3.47145e-07
3.41432e-07
3.35531e-07
3.29118e-07
3.22547e-07
3.15566e-07
3.08302e-07
3.00757e-07
2.92794e-07
2.84669e-07
2.76003e-07
2.67236e-07
2.57908e-07
2.48437e-07
2.38492e-07
2.28305e-07
2.17735e-07
2.06818e-07
1.95622e-07
1.83958e-07
1.72139e-07
1.59711e-07
1.47102e-07
1.40587e-07
1.34071e-07
1.27453e-07
1.20651e-07
1.13849e-07
1.06958e-07
9.98849e-08
9.28118e-08
8.5604e-08
7.82814e-08
7.09502e-08
6.34033e-08
5.58563e-08
4.81431e-08
4.03997e-08
3.24944e-08
2.45217e-08
1.64498e-08
1.23809e-08
8.27763e-09
4.15183e-09
0
)

)


10
(

113
(
0
2.16489e-12
2.44e-11
1.46242e-10
6.33647e-10
2.47039e-09
8.8764e-09
2.80321e-08
7.60541e-08
1.76929e-07
3.65649e-07
6.76833e-07
1.14325e-06
1.80923e-06
2.70154e-06
3.99333e-06
5.685e-06
7.73692e-06
1.01167e-05
1.32833e-05
1.67846e-05
2.1e-05
2.6e-05
3.15538e-05
3.73231e-05
4.4125e-05
5.15083e-05
5.93e-05
6.74e-05
7.5725e-05
8.3975e-05
9.25727e-05
0.0001001
0.0001065
0.000111818
0.000115273
0.000115818
0.000114455
0.000109
0.000100818
9.09182e-05
7.858e-05
6.66182e-05
5.477e-05
4.45182e-05
3.58455e-05
2.85727e-05
2.28667e-05
1.85e-05
1.5e-05
1.26154e-05
1.04242e-05
8.60077e-06
7.13143e-06
5.93857e-06
4.90571e-06
3.97857e-06
3.15e-06
2.53e-06
1.995e-06
1.545e-06
1.203e-06
9.04125e-07
6.77875e-07
5.12412e-07
3.73e-07
2.89667e-07
2.12889e-07
1.62333e-07
1.19978e-07
8.99222e-08
6.77632e-08
5.08684e-08
3.88737e-08
2.89789e-08
2.26e-08
1.71e-08
1.3412e-08
1.0177e-08
7.962e-09
6.002e-09
4.638e-09
3.423e-09
2.54421e-09
1.74947e-09
1.2686e-09
8.226e-10
5.435e-10
2.97667e-10
1.84333e-10
9.22059e-11
7.08824e-11
4.95588e-11
3.10819e-11
2.39912e-11
1.69006e-11
9.81e-12
7.52667e-12
5.24333e-12
2.96e-12
2.09792e-12
1.23583e-12
7.21636e-13
4.39364e-13
2.28178e-13
1.23622e-13
5.72e-14
2.148e-14
6.88e-15
3.6925e-15
1.098e-15
1.69475e-16
0
)


113
(
0
3.73033e-10
2.42167e-09
9.25734e-09
2.61039e-08
6.25329e-08
1.34051e-07
2.61387e-07
4.70093e-07
7.90819e-07
1.25304e-06
1.8964e-06
2.74657e-06
3.84391e-06
5.27964e-06
7.06624e-06
9.22744e-06
1.17971e-05
1.47506e-05
1.8225e-05
2.22299e-05
2.66405e-05
3.14872e-05
3.67305e-05
4.23318e-05
4.82265e-05
5.42591e-05
6.0314e-05
6.62645e-05
7.19727e-05
7.72149e-05
8.17878e-05
8.55223e-05
8.834e-05
9.0153e-05
9.07929e-05
9.02531e-05
8.85319e-05
8.56955e-05
8.17429e-05
7.6949e-05
7.15273e-05
6.55953e-05
5.94154e-05
5.31693e-05
4.70331e-05
4.113e-05
3.55881e-05
3.04701e-05
2.58398e-05
2.1852e-05
1.83112e-05
1.52537e-05
1.26003e-05
1.03964e-05
8.57641e-06
7.01039e-06
5.68133e-06
4.66829e-06
3.78619e-06
3.03502e-06
2.46536e-06
1.96109e-06
1.56232e-06
1.24428e-06
9.6083e-07
7.66832e-07
5.85991e-07
4.57775e-07
3.47798e-07
2.6518e-07
2.01387e-07
1.50145e-07
1.1348e-07
8.30618e-08
6.3104e-08
4.57612e-08
3.46221e-08
2.50339e-08
1.89082e-08
1.36481e-08
1.02769e-08
7.37798e-09
5.50321e-09
3.88448e-09
2.89789e-09
1.98154e-09
1.42851e-09
9.38478e-10
6.52064e-10
4.06459e-10
3.31269e-10
2.56078e-10
1.88556e-10
1.51713e-10
1.14869e-10
7.80253e-11
6.12869e-11
4.45484e-11
2.781e-11
2.05586e-11
1.33072e-11
8.54379e-12
5.43905e-12
3.05811e-12
1.76287e-12