/*--------------------------------*- C++ -*----------------------------------*\
| =========                 |                                                 |
| \\      /  F ield         | OpenFOAM: The Open Source CFD Toolbox           |
|  \\    /   O peration     | Version:  2.3.0                                 |
|   \\  /    A nd           | Web:      www.OpenFOAM.org                      |
|    \\/     M anipulation  |                                                 |
\*---------------------------------------------------------------------------*/
FoamFile
{
    version     2.0;
    format      ascii;
    class       dictionary;
    location    "constant";
    object      HCCO;
}
// * * * * * * * * * * * * * * * * * * * * * * * * * * * * * * * * * * * * * //

HCCO_table
13
(

10
(

113
(
0
1.50942e-36
1.40119e-35
6.8154e-35
2.37921e-34
7.11048e-34
1.97137e-33
4.99438e-33
6.69597e-32
2.04762e-31
6.29927e-31
4.83141e-30
1.2e-29
7.42642e-29
3.16764e-28
8.18627e-28
3.98207e-27
1.21605e-26
4.15751e-26
1.87933e-25
4.37994e-25
2.85952e-24
1.76486e-23
6.69511e-23
1.44976e-21
6.73826e-21
1.66651e-19
5.69516e-18
1.89492e-17
8.61047e-16
1.62994e-14
8.58682e-14
2.32166e-12
8.42509e-12
1.3618e-10
1.39041e-09
4.13788e-09
3.1368e-08
1.01667e-07
2.7673e-07
6.20185e-07
1.03305e-06
1.40013e-06
1.59527e-06
1.62521e-06
1.4989e-06
1.34279e-06
1.18637e-06
1.04523e-06
9.36584e-07
8.47834e-07
7.81524e-07
7.4e-07
7.15e-07
7.18046e-07
7.34289e-07
7.82936e-07
8.44817e-07
9.39333e-07
1.04851e-06
1.19333e-06
1.36e-06
1.55421e-06
1.77383e-06
2.005e-06
2.255e-06
2.49743e-06
2.71303e-06
2.92236e-06
2.98145e-06
3.04055e-06
2.87136e-06
2.65869e-06
2.30189e-06
1.86045e-06
1.43545e-06
1.03411e-06
6.6527e-07
4.55093e-07
2.44916e-07
1.59173e-07
8.5737e-08
4.62735e-08
2.59195e-08
1.1463e-08
6.62897e-09
2.37303e-09
1.39321e-09
4.13394e-10
2.24484e-10
6.0034e-11
3.31382e-11
2.37147e-11
1.42912e-11
4.86776e-12
2.6493e-12
1.80324e-12
9.57169e-13
3.21808e-13
2.28263e-13
1.34719e-13
5.04943e-14
3.46137e-14
1.87331e-14
8.23685e-15
4.59333e-15
1.69415e-15
7.08963e-16
1.89495e-16
5.78674e-17
1.99603e-17
2.10748e-18
0
)


113
(
0
5.83288e-24
2.29349e-22
5.32075e-21
5.16506e-20
4.49825e-19
2.40727e-18
2.01931e-17
1.29772e-16
4.36947e-16
2.26758e-15
1.12664e-14
2.58974e-14
1.24273e-13
4.15362e-13
9.83767e-13
3.61056e-12
8.32092e-12
2.06915e-11
5.47157e-11
1.07942e-10
2.72038e-10
5.38031e-10
1.05898e-09
2.12413e-09
3.53406e-09
6.8386e-09
1.1658e-08
1.86574e-08
3.07354e-08
4.6214e-08
6.97087e-08
1.01334e-07
1.38484e-07
1.91683e-07
2.51976e-07
3.21674e-07
4.0283e-07
4.87761e-07
5.77432e-07
6.65192e-07
7.50611e-07
8.25153e-07
8.89049e-07
9.42717e-07
9.75392e-07
1.00172e-06
1.00909e-06
1.01188e-06
1.00496e-06
9.97819e-07
9.90423e-07
9.91302e-07
9.97698e-07
1.02091e-06
1.05203e-06
1.1055e-06
1.1681e-06
1.25217e-06
1.34589e-06
1.45374e-06
1.57027e-06
1.68914e-06
1.81018e-06
1.92298e-06
2.02232e-06
2.11022e-06
2.15753e-06
2.20183e-06
2.17372e-06
2.14561e-06
2.04842e-06
1.93808e-06
1.788e-06
1.61458e-06
1.4304e-06
1.23074e-06
1.03389e-06
8.50734e-07
6.67582e-07
5.26545e-07
3.89673e-07
2.86639e-07
2.02639e-07
1.3438e-07
9.18035e-08
5.29621e-08
3.52849e-08
1.76077e-08
1.1211e-08
5.16313e-09
3.76634e-09
2.88339e-09
2.00045e-09
1.1175e-09
7.91011e-10
5.70516e-10
3.50021e-10
1.77307e-10
1.27458e-10
7.76095e-11
3.24841e-11
2.1999e-11
1.15138e-11
4.68895e-12
2.52263e-12
8.27801e-13
3.45356e-13
9.86469e-14
3.93406e-14
1.83046e-14
5.31884e-15
0
)


113
(
0
2.93596e-12
1.00114e-11
2.55042e-11
5.43915e-11
1.03231e-10
1.83113e-10
3.42202e-10
5.71255e-10
8.70029e-10
1.35711e-09
2.0546e-09
2.91741e-09
4.34255e-09
6.0964e-09
8.32329e-09
1.13575e-08
1.49125e-08
2.00249e-08
2.5979e-08
3.26796e-08
4.16465e-08
5.18902e-08
6.50508e-08
7.94484e-08
9.46261e-08
1.1393e-07
1.3497e-07
1.5851e-07
1.84857e-07
2.12633e-07
2.43145e-07
2.76177e-07
3.10869e-07
3.47949e-07
3.86123e-07
4.25747e-07
4.6726e-07
5.09435e-07
5.52502e-07
5.96028e-07
6.39833e-07
6.84163e-07
7.28363e-07
7.72437e-07
8.16937e-07
8.61499e-07
9.05918e-07
9.50316e-07
9.94669e-07
1.03891e-06
1.08303e-06
1.12687e-06
1.17053e-06
1.21365e-06
1.25651e-06
1.2986e-06
1.34038e-06
1.37802e-06
1.4138e-06
1.4458e-06
1.4755e-06
1.49947e-06
1.51816e-06
1.53116e-06
1.53487e-06
1.5348e-06
1.52129e-06
1.50701e-06
1.47407e-06
1.44114e-06
1.39277e-06
1.34146e-06
1.27968e-06
1.21175e-06
1.13873e-06
1.05836e-06
9.77137e-07
8.91726e-07
8.06316e-07
7.22144e-07
6.38096e-07
5.58686e-07
4.81884e-07
4.10023e-07
3.46221e-07
2.84248e-07
2.32636e-07
1.81023e-07
1.44492e-07
1.08427e-07
9.47477e-08
8.24428e-08
7.01378e-08
5.78329e-08
4.94514e-08
4.18172e-08
3.41831e-08
2.736e-08
2.26227e-08
1.78853e-08
1.33873e-08
1.06439e-08
7.90061e-09
5.65707e-09
4.04963e-09
2.62011e-09
1.64814e-09
9.04493e-10
5.98605e-10
3.74712e-10
1.77287e-10
0
)


113
(
0
5.72553e-10
1.30076e-09
2.29744e-09
3.5912e-09
5.21527e-09
7.24408e-09
9.81681e-09
1.28553e-08
1.63271e-08
2.06674e-08
2.56302e-08
3.10821e-08
3.80437e-08
4.55559e-08
5.38601e-08
6.36074e-08
7.40161e-08
8.5893e-08
9.88532e-08
1.12774e-07
1.27851e-07
1.43693e-07
1.61347e-07
1.80095e-07
1.99492e-07
2.20609e-07
2.42973e-07
2.67129e-07
2.92533e-07
3.18787e-07
3.47066e-07
3.75739e-07
4.04694e-07
4.3507e-07
4.66148e-07
4.98156e-07
5.31155e-07
5.64549e-07
5.98538e-07
6.32726e-07
6.6699e-07
7.01148e-07
7.35799e-07
7.70923e-07
8.04218e-07
8.37281e-07
8.71277e-07
9.04446e-07
9.35857e-07
9.66242e-07
9.95471e-07
1.02218e-06
1.0472e-06
1.07102e-06
1.09428e-06
1.11346e-06
1.13099e-06
1.14402e-06
1.15502e-06
1.16344e-06
1.17027e-06
1.17288e-06
1.17159e-06
1.16764e-06
1.15934e-06
1.14929e-06
1.13299e-06
1.11643e-06
1.09345e-06
1.07047e-06
1.0406e-06
1.00942e-06
9.74517e-07
9.37426e-07
8.98264e-07
8.5612e-07
8.1341e-07
7.67935e-07
7.22459e-07
6.73838e-07
6.24905e-07
5.77294e-07
5.30427e-07
4.83651e-07
4.37026e-07
3.90738e-07
3.46362e-07
3.01987e-07
2.62945e-07
2.24068e-07
2.06611e-07
1.8978e-07
1.7295e-07
1.56119e-07
1.41533e-07
1.27374e-07
1.13214e-07
9.97566e-08
8.81024e-08
7.64482e-08
6.50574e-08
5.55988e-08
4.61402e-08
3.74774e-08
2.98274e-08
2.25579e-08
1.6267e-08
1.05302e-08
7.81784e-09
5.25787e-09
2.6892e-09
0
)


113
(
0
3.79181e-09
7.63176e-09
1.191e-08
1.67221e-08
2.21082e-08
2.81492e-08
3.49701e-08
4.23901e-08
5.0347e-08
5.92728e-08
6.88182e-08
7.88504e-08
9.00394e-08
1.01716e-07
1.14094e-07
1.27437e-07
1.41226e-07
1.56017e-07
1.71435e-07
1.87409e-07
2.04412e-07
2.2181e-07
2.40011e-07
2.59101e-07
2.78734e-07
3.00492e-07
3.21736e-07
3.42242e-07
3.65113e-07
3.88124e-07
4.09435e-07
4.31487e-07
4.5407e-07
4.79467e-07
5.02764e-07
5.2328e-07
5.46521e-07
5.7002e-07
5.9292e-07
6.15208e-07
6.372e-07
6.59044e-07
6.79834e-07
6.9961e-07
7.19804e-07
7.40001e-07
7.59589e-07
7.7778e-07
7.93005e-07
8.07937e-07
8.22539e-07
8.36003e-07
8.48709e-07
8.59262e-07
8.68802e-07
8.76e-07
8.82241e-07
8.86611e-07
8.9014e-07
8.91566e-07
8.91702e-07
8.89936e-07
8.86412e-07
8.80884e-07
8.72084e-07
8.62796e-07
8.51782e-07
8.40644e-07
8.26531e-07
8.12417e-07
7.93222e-07
7.73058e-07
7.50185e-07
7.25721e-07
7.01434e-07
6.77399e-07
6.52724e-07
6.24923e-07
5.97122e-07
5.67507e-07
5.37712e-07
5.07048e-07
4.75895e-07
4.44487e-07
4.12665e-07
3.80847e-07
3.49058e-07
3.17269e-07
2.86159e-07
2.5507e-07
2.40015e-07
2.25114e-07
2.10214e-07
1.95313e-07
1.81147e-07
1.67122e-07
1.53096e-07
1.39358e-07
1.26361e-07
1.13364e-07
1.00494e-07
8.85576e-08
7.66213e-08
6.5082e-08
5.40481e-08
4.31622e-08
3.26574e-08
2.21786e-08
1.69316e-08
1.15204e-08
5.93476e-09
0
)


113
(
0
8.90377e-09
1.72645e-08
2.5618e-08
3.42119e-08
4.31493e-08
5.25263e-08
6.24471e-08
7.27784e-08
8.34733e-08
9.47921e-08
1.06479e-07
1.18456e-07
1.3106e-07
1.43904e-07
1.57094e-07
1.70713e-07
1.84521e-07
1.98731e-07
2.13163e-07
2.27793e-07
2.42742e-07
2.57802e-07
2.73073e-07
2.88481e-07
3.03969e-07
3.19593e-07
3.35243e-07
3.5093e-07
3.66607e-07
3.8226e-07
3.9784e-07
4.13315e-07
4.28684e-07
4.422e-07
4.56249e-07
4.71005e-07
4.85412e-07
4.99624e-07
5.1348e-07
5.26946e-07
5.40159e-07
5.52805e-07
5.68408e-07
5.86851e-07
6.00868e-07
6.13863e-07
6.25418e-07
6.36527e-07
6.46687e-07
6.54424e-07
6.59429e-07
6.64305e-07
6.69095e-07
6.74874e-07
6.81117e-07
6.75467e-07
6.6496e-07
6.61742e-07
6.61799e-07
6.60648e-07
6.58755e-07
6.55811e-07
6.51896e-07
6.47194e-07
6.41209e-07
6.34999e-07
6.27992e-07
6.20852e-07
6.10526e-07
6.00199e-07
5.882e-07
5.75881e-07
5.62351e-07
5.4811e-07
5.3312e-07
5.17052e-07
5.00696e-07
4.82929e-07
4.65162e-07
4.46001e-07
4.26702e-07
4.06558e-07
3.85939e-07
3.64918e-07
3.43238e-07
3.21445e-07
2.99005e-07
2.76565e-07
2.53709e-07
2.3084e-07
2.19371e-07
2.07891e-07
1.9641e-07
1.8493e-07
1.73529e-07
1.62143e-07
1.50756e-07
1.39415e-07
1.28188e-07
1.16962e-07
1.05748e-07
9.46272e-08
8.35063e-08
7.23468e-08
6.11382e-08
4.98254e-08
3.82451e-08
2.62545e-08
2.01253e-08
1.36715e-08
7.00872e-09
0
)


113
(
0
1.22933e-08
2.36632e-08
3.44908e-08
4.5063e-08
5.55162e-08
6.594e-08
7.64194e-08
8.69717e-08
9.75958e-08
1.08367e-07
1.19231e-07
1.30167e-07
1.41255e-07
1.52393e-07
1.63605e-07
1.74889e-07
1.86199e-07
1.97553e-07
2.08911e-07
2.20275e-07
2.31613e-07
2.42615e-07
2.5267e-07
2.63238e-07
2.74092e-07
2.84751e-07
2.95311e-07
3.0573e-07
3.15925e-07
3.25996e-07
3.35816e-07
3.45416e-07
3.54869e-07
3.63934e-07
3.72813e-07
3.81446e-07
3.89683e-07
3.97713e-07
4.05378e-07
4.12674e-07
4.19735e-07
4.26292e-07
4.32531e-07
4.38464e-07
4.43823e-07
4.48992e-07
4.53501e-07
4.57752e-07
4.61459e-07
4.64763e-07
4.67615e-07
4.69924e-07
4.71872e-07
4.73168e-07
4.74157e-07
4.74428e-07
4.74405e-07
4.73648e-07
4.72562e-07
4.70792e-07
4.68601e-07
4.65818e-07
4.62488e-07
4.58715e-07
4.54219e-07
4.49465e-07
4.4379e-07
4.38069e-07
4.3121e-07
4.24352e-07
4.16503e-07
4.08467e-07
3.99701e-07
3.90505e-07
3.80847e-07
3.70522e-07
3.60234e-07
3.50129e-07
3.40025e-07
3.27527e-07
3.14793e-07
3.01489e-07
2.87863e-07
2.73934e-07
2.59509e-07
2.4498e-07
2.29859e-07
2.14738e-07
1.99042e-07
1.83327e-07
1.75272e-07
1.67153e-07
1.59035e-07
1.50917e-07
1.42582e-07
1.34206e-07
1.2583e-07
1.17368e-07
1.08688e-07
1.00007e-07
9.12773e-08
8.21907e-08
7.3104e-08
6.37801e-08
5.41542e-08
4.43459e-08
3.40684e-08
2.33437e-08
1.78425e-08
1.20698e-08
6.14856e-09
0
)


113
(
0
1.17445e-08
2.27109e-08
3.30415e-08
4.29169e-08
5.24285e-08
6.16178e-08
7.05183e-08
7.92402e-08
8.78137e-08
9.61697e-08
1.04411e-07
1.12562e-07
1.20526e-07
1.28417e-07
1.36203e-07
1.43847e-07
1.51425e-07
1.58853e-07
1.6618e-07
1.73419e-07
1.80477e-07
1.8746e-07
1.94285e-07
2.00967e-07
2.07562e-07
2.13922e-07
2.20179e-07
2.26285e-07
2.32177e-07
2.37956e-07
2.43513e-07
2.48889e-07
2.54143e-07
2.59093e-07
2.63905e-07
2.68533e-07
2.72877e-07
2.77077e-07
2.81023e-07
2.84723e-07
2.88267e-07
2.91483e-07
2.94497e-07
2.97317e-07
2.99783e-07
3.02132e-07
3.04082e-07
3.05879e-07
3.07354e-07
3.08595e-07
3.09574e-07
3.10242e-07
3.10704e-07
3.108e-07
3.10723e-07
3.10247e-07
3.09608e-07
3.08567e-07
3.07345e-07
3.05751e-07
3.03929e-07
3.01787e-07
2.99351e-07
2.96676e-07
2.93615e-07
2.90414e-07
2.86722e-07
2.83005e-07
2.7868e-07
2.74354e-07
2.69499e-07
2.64542e-07
2.59191e-07
2.53607e-07
2.4777e-07
2.41567e-07
2.35259e-07
2.28442e-07
2.21625e-07
2.14256e-07
2.06833e-07
1.99026e-07
1.91004e-07
1.82757e-07
1.74141e-07
1.65435e-07
1.56221e-07
1.47006e-07
1.37189e-07
1.27354e-07
1.22183e-07
1.16933e-07
1.11682e-07
1.06432e-07
1.00872e-07
9.52533e-08
8.96347e-08
8.38999e-08
7.78662e-08
7.18324e-08
6.57429e-08
5.92438e-08
5.27447e-08
4.60262e-08
3.90286e-08
3.18931e-08
2.44032e-08
1.66272e-08
1.26521e-08
8.52374e-09
4.31832e-09
0
)


113
(
0
7.4543e-09
1.45441e-08
2.12865e-08
2.77412e-08
3.3937e-08
3.98744e-08
4.55448e-08
5.10314e-08
5.63596e-08
6.14315e-08
6.63576e-08
7.1169e-08
7.57346e-08
8.02051e-08
8.45387e-08
8.8696e-08
9.27734e-08
9.66759e-08
1.00472e-07
1.04172e-07
1.07698e-07
1.11155e-07
1.14473e-07
1.17673e-07
1.20804e-07
1.23757e-07
1.26638e-07
1.29414e-07
1.3205e-07
1.34613e-07
1.37039e-07
1.39358e-07
1.41606e-07
1.43683e-07
1.45684e-07
1.47587e-07
1.49341e-07
1.51021e-07
1.52573e-07
1.54003e-07
1.55357e-07
1.56553e-07
1.57655e-07
1.58665e-07
1.59511e-07
1.60304e-07
1.60916e-07
1.61461e-07
1.61861e-07
1.62159e-07
1.62341e-07
1.62389e-07
1.62346e-07
1.62146e-07
1.61872e-07
1.61427e-07
1.60913e-07
1.60228e-07
1.59465e-07
1.58545e-07
1.57527e-07
1.56373e-07
1.55094e-07
1.53713e-07
1.52165e-07
1.50557e-07
1.48735e-07
1.46903e-07
1.44801e-07
1.42699e-07
1.40356e-07
1.37967e-07
1.35393e-07
1.32709e-07
1.299e-07
1.26912e-07
1.23869e-07
1.20562e-07
1.17255e-07
1.13642e-07
1.09999e-07
1.06129e-07
1.02131e-07
9.79884e-08
9.36114e-08
8.91735e-08
8.43904e-08
7.96074e-08
7.44011e-08
6.91817e-08
6.63948e-08
6.3552e-08
6.07092e-08
5.78663e-08
5.48174e-08
5.17293e-08
4.86411e-08
4.54823e-08
4.21415e-08
3.88008e-08
3.54299e-08
3.18379e-08
2.82459e-08
2.45499e-08
2.07216e-08
1.68357e-08
1.28014e-08
8.65944e-09
6.55611e-09
4.39959e-09
2.21781e-09
0
)


113
(
0
6.93685e-10
1.37082e-09
2.03059e-09
2.6746e-09
3.30334e-09
3.91567e-09
4.50942e-09
5.08939e-09
5.65716e-09
6.20369e-09
6.73714e-09
7.26032e-09
7.75987e-09
8.24972e-09
8.72561e-09
9.1826e-09
9.63085e-09
1.00596e-08
1.04759e-08
1.08814e-08
1.12662e-08
1.16428e-08
1.20026e-08
1.23482e-08
1.26853e-08
1.30009e-08
1.33075e-08
1.36014e-08
1.38781e-08
1.41461e-08
1.43974e-08
1.46358e-08
1.48657e-08
1.50751e-08
1.52757e-08
1.54645e-08
1.56359e-08
1.57987e-08
1.59467e-08
1.60808e-08
1.62061e-08
1.63136e-08
1.64103e-08
1.64969e-08
1.65652e-08
1.66277e-08
1.66702e-08
1.67053e-08
1.67248e-08
1.67331e-08
1.67289e-08
1.67103e-08
1.66821e-08
1.6637e-08
1.6584e-08
1.6513e-08
1.64345e-08
1.6338e-08
1.62334e-08
1.61121e-08
1.59807e-08
1.58349e-08
1.5676e-08
1.55065e-08
1.53195e-08
1.51263e-08
1.49108e-08
1.46942e-08
1.44496e-08
1.4205e-08
1.39355e-08
1.36614e-08
1.33682e-08
1.30639e-08
1.2747e-08
1.24119e-08
1.20715e-08
1.1705e-08
1.13385e-08
1.09427e-08
1.05439e-08
1.01242e-08
9.69272e-09
9.24863e-09
8.78402e-09
8.31444e-09
7.81667e-09
7.3189e-09
6.78935e-09
6.25881e-09
5.98149e-09
5.70036e-09
5.41923e-09
5.13809e-09
4.84441e-09
4.54833e-09
4.25225e-09
3.95234e-09
3.64258e-09
3.33281e-09
3.02159e-09
2.69972e-09
2.37784e-09
2.05149e-09
1.71942e-09
1.3851e-09
1.04497e-09
7.00954e-10
5.27783e-10
3.52795e-10
1.76979e-10
0
)

)


10
(

113
(
0
1.58309e-33
1.43106e-32
6.82845e-32
2.22947e-31
6.4313e-31
1.81898e-30
5.5816e-30
2.13292e-29
1.02257e-28
5.14676e-28
2.37338e-27
9.66255e-27
3.48364e-26
1.11189e-25
3.47082e-25
1.25079e-24
4.39068e-24
1.51557e-23
5.18452e-23
1.77741e-22
6.17629e-22
2.04195e-21
1.16235e-20
9.15765e-20
9.42122e-19
1.11236e-17
1.37258e-16
1.67556e-15
1.94712e-14
2.08603e-13
2.01035e-12
1.72385e-11
1.30588e-10
8.96489e-10
6.20198e-09
3.64767e-08
1.68949e-07
6.03309e-07
1.63675e-06
3.37314e-06
5.34644e-06
6.74784e-06
7.21904e-06
6.97902e-06
6.45809e-06
6.00041e-06
5.78088e-06
5.86968e-06
6.24099e-06
6.8362e-06
7.60571e-06
8.48885e-06
9.42004e-06
1.03324e-05
1.10845e-05
1.15691e-05
1.17402e-05
1.15705e-05
1.08949e-05
9.835e-06
8.55186e-06
7.07899e-06
5.62365e-06
4.27307e-06
3.08873e-06
2.21438e-06
1.48338e-06
9.96043e-07
6.53581e-07
3.95115e-07
2.65358e-07
1.5774e-07
1.01297e-07
6.10778e-08
3.68254e-08
2.28359e-08
1.28177e-08
8.26896e-09
4.45375e-09
2.89917e-09
1.56685e-09
9.74434e-10
5.2553e-10
3.04908e-10
1.63076e-10
8.46761e-11
4.56638e-11
1.97809e-11
1.16667e-11
5.33547e-12
4.11687e-12
2.89828e-12
1.96413e-12
1.54454e-12
1.12495e-12
7.85797e-13
6.12937e-13
4.40076e-13
3.16367e-13
2.34529e-13
1.5422e-13
1.1263e-13
7.10412e-14
4.64959e-14
2.49961e-14
1.40131e-14
5.97594e-15
1.78186e-15
6.5357e-16
2.03861e-16
2.12927e-17
0
)


113
(
0
3.52096e-23
1.09728e-21
2.56261e-20
2.68378e-19
1.93872e-18
1.46703e-17
9.60655e-17
5.34272e-16
2.70248e-15
1.26556e-14
5.08203e-14
1.91401e-13
6.48864e-13
1.93245e-12
5.51502e-12
1.65361e-11
4.55856e-11
1.16753e-10
2.79196e-10
6.26152e-10
1.32363e-09
2.65805e-09
5.45787e-09
1.05862e-08
1.94964e-08
3.44316e-08
5.86772e-08
9.6939e-08
1.54393e-07
2.36166e-07
3.49292e-07
5.01199e-07
6.99231e-07
9.47757e-07
1.2505e-06
1.60538e-06
2.00794e-06
2.44978e-06
2.92163e-06
3.41078e-06
3.90394e-06
4.39565e-06
4.87113e-06
5.32951e-06
5.76736e-06
6.18442e-06
6.58319e-06
6.96794e-06
7.33379e-06
7.67684e-06
7.9909e-06
8.26693e-06
8.49398e-06
8.66105e-06
8.72935e-06
8.69759e-06
8.56771e-06
8.34038e-06
7.98093e-06
7.51736e-06
6.98192e-06
6.37238e-06
5.70466e-06
5.02413e-06
4.33593e-06
3.68158e-06
3.05539e-06
2.49161e-06
1.9977e-06
1.5443e-06
1.20336e-06
8.93681e-07
6.63927e-07
4.77569e-07
3.33921e-07
2.34409e-07
1.51976e-07
1.05277e-07
6.38691e-08
4.32879e-08
2.53606e-08
1.62678e-08
9.26137e-09
5.57373e-09
3.13997e-09
1.71564e-09
9.68229e-10
4.46451e-10
2.67019e-10
1.2454e-10
9.39374e-11
6.33345e-11
4.00191e-11
2.98867e-11
1.97543e-11
1.18755e-11
8.6559e-12
5.43628e-12
3.36382e-12
2.26857e-12
1.20079e-12
8.28507e-13
4.5622e-13
2.82364e-13
1.43616e-13
8.4132e-14
4.07542e-14
1.72183e-14
9.69632e-15
5.11238e-15
1.93833e-15
0
)


113
(
0
1.51049e-11
5.1675e-11
1.3262e-10
2.81833e-10
5.39933e-10
9.76574e-10
1.69939e-09
2.84849e-09
4.53473e-09
7.01268e-09
1.05236e-08
1.54228e-08
2.21335e-08
3.10346e-08
4.27967e-08
5.88015e-08
7.93335e-08
1.05045e-07
1.36633e-07
1.75076e-07
2.21729e-07
2.78081e-07
3.47201e-07
4.27756e-07
5.20268e-07
6.2559e-07
7.44902e-07
8.79611e-07
1.03127e-06
1.20092e-06
1.38749e-06
1.58895e-06
1.8042e-06
2.03136e-06
2.27478e-06
2.53112e-06
2.79542e-06
3.0684e-06
3.34619e-06
3.6273e-06
3.90824e-06
4.18285e-06
4.45641e-06
4.71579e-06
4.965e-06
5.19645e-06
5.40769e-06
5.59958e-06
5.76366e-06
5.89802e-06
6.00103e-06
6.07342e-06
6.11496e-06
6.12445e-06
6.09293e-06
6.02561e-06
5.92768e-06
5.80165e-06
5.63984e-06
5.44711e-06
5.23189e-06
4.99238e-06
4.72746e-06
4.45101e-06
4.16153e-06
3.86282e-06
3.56203e-06
3.26027e-06
2.96318e-06
2.66881e-06
2.39035e-06
2.11877e-06
1.86574e-06
1.62726e-06
1.4031e-06
1.20326e-06
1.01284e-06
8.55062e-07
7.03201e-07
5.835e-07
4.705e-07
3.79804e-07
2.99014e-07
2.33985e-07
1.80015e-07
1.3495e-07
1.01589e-07
7.21304e-08
5.32056e-08
3.65517e-08
3.08368e-08
2.51218e-08
2.02162e-08
1.67745e-08
1.33329e-08
1.0379e-08
8.43344e-09
6.48789e-09
4.98358e-09
3.85512e-09
2.74503e-09
2.09993e-09
1.45483e-09
1.04046e-09
6.67357e-10
4.42738e-10
2.60922e-10
1.36153e-10
8.89903e-11
5.41487e-11
2.51861e-11
0
)


113
(
0
3.20765e-09
7.30554e-09
1.29581e-08
2.02958e-08
2.9627e-08
4.12975e-08
5.56579e-08
7.30557e-08
9.3828e-08
1.18302e-07
1.46796e-07
1.79523e-07
2.17007e-07
2.60245e-07
3.10157e-07
3.64739e-07
4.23811e-07
4.90055e-07
5.62841e-07
6.41345e-07
7.2674e-07
8.19419e-07
9.19771e-07
1.02528e-06
1.13706e-06
1.2551e-06
1.38079e-06
1.51186e-06
1.64583e-06
1.78483e-06
1.92555e-06
2.06828e-06
2.22061e-06
2.37257e-06
2.525e-06
2.67451e-06
2.82406e-06
2.97423e-06
3.11944e-06
3.25927e-06
3.39539e-06
3.52489e-06
3.646e-06
3.76415e-06
3.86907e-06
3.96757e-06
4.05257e-06
4.12621e-06
4.19064e-06
4.24057e-06
4.27583e-06
4.29866e-06
4.30982e-06
4.30822e-06
4.2894e-06
4.25649e-06
4.21287e-06
4.1593e-06
4.089e-06
4.00469e-06
3.90943e-06
3.80164e-06
3.68415e-06
3.56118e-06
3.43149e-06
3.29162e-06
3.14733e-06
2.99587e-06
2.84274e-06
2.68865e-06
2.52865e-06
2.36798e-06
2.20601e-06
2.04614e-06
1.88835e-06
1.7383e-06
1.59125e-06
1.45202e-06
1.31417e-06
1.18363e-06
1.05615e-06
9.38798e-07
8.26727e-07
7.23048e-07
6.27792e-07
5.39315e-07
4.61135e-07
3.86386e-07
3.24318e-07
2.65764e-07
2.40569e-07
2.15373e-07
1.91961e-07
1.71774e-07
1.51587e-07
1.32767e-07
1.16772e-07
1.00777e-07
8.66169e-08
7.40199e-08
6.15248e-08
5.16091e-08
4.16934e-08
3.35369e-08
2.56983e-08
1.9385e-08
1.36261e-08
8.63012e-09
6.35001e-09
4.22834e-09
2.14303e-09
0
)


113
(
0
2.094e-08
4.19738e-08
6.53422e-08
9.14756e-08
1.20724e-07
1.53295e-07
1.89279e-07
2.28695e-07
2.71529e-07
3.17749e-07
3.67319e-07
4.20193e-07
4.76326e-07
5.3566e-07
5.98354e-07
6.64476e-07
7.33524e-07
8.05375e-07
8.79897e-07
9.56943e-07
1.03635e-06
1.11794e-06
1.20176e-06
1.28798e-06
1.37774e-06
1.47095e-06
1.56102e-06
1.65034e-06
1.74291e-06
1.83156e-06
1.92311e-06
2.01402e-06
2.0996e-06
2.188e-06
2.27168e-06
2.35258e-06
2.42938e-06
2.50101e-06
2.57977e-06
2.65259e-06
2.71442e-06
2.77854e-06
2.8342e-06
2.88721e-06
2.93538e-06
2.97848e-06
3.01511e-06
3.04692e-06
3.07377e-06
3.09436e-06
3.10787e-06
3.11567e-06
3.11783e-06
3.11304e-06
3.10523e-06
3.08985e-06
3.06687e-06
3.03675e-06
2.99963e-06
2.96055e-06
2.91697e-06
2.8657e-06
2.81204e-06
2.75372e-06
2.68841e-06
2.60868e-06
2.52808e-06
2.45271e-06
2.37922e-06
2.30682e-06
2.21029e-06
2.1105e-06
2.00377e-06
1.90782e-06
1.82246e-06
1.72785e-06
1.62965e-06
1.53318e-06
1.43697e-06
1.34191e-06
1.24741e-06
1.1548e-06
1.06355e-06
9.74473e-07
8.87888e-07
8.03307e-07
7.22655e-07
6.43313e-07
5.6968e-07
4.97878e-07
4.64115e-07
4.30351e-07
3.9768e-07
3.66983e-07
3.36286e-07
3.0657e-07
2.7888e-07
2.5119e-07
2.25038e-07
2.00195e-07
1.7545e-07
1.53176e-07
1.30902e-07
1.10455e-07
9.03379e-08
7.17769e-08
5.36801e-08
3.61108e-08
2.74023e-08
1.85796e-08
9.52244e-09
0
)


113
(
0
4.29476e-08
8.27808e-08
1.22248e-07
1.62505e-07
2.04112e-07
2.47374e-07
2.92404e-07
3.39191e-07
3.87657e-07
4.37688e-07
4.89162e-07
5.41953e-07
5.9594e-07
6.51002e-07
7.07077e-07
7.64056e-07
8.21698e-07
8.79886e-07
9.38499e-07
9.97419e-07
1.05652e-06
1.11569e-06
1.17474e-06
1.23356e-06
1.292e-06
1.34995e-06
1.40728e-06
1.46384e-06
1.51952e-06
1.57418e-06
1.62768e-06
1.67991e-06
1.7312e-06
1.78987e-06
1.83787e-06
1.88409e-06
1.92844e-06
1.9708e-06
2.01109e-06
2.04922e-06
2.08502e-06
2.11845e-06
2.15162e-06
2.19525e-06
2.22418e-06
2.25216e-06
2.27964e-06
2.29795e-06
2.31111e-06
2.32099e-06
2.32788e-06
2.32919e-06
2.32592e-06
2.32236e-06
2.31222e-06
2.29829e-06
2.25808e-06
2.19579e-06
2.17648e-06
2.15401e-06
2.1291e-06
2.1014e-06
2.07001e-06
2.03654e-06
2.00051e-06
1.96807e-06
1.93296e-06
1.88826e-06
1.84125e-06
1.7929e-06
1.74124e-06
1.68865e-06
1.6337e-06
1.57731e-06
1.51951e-06
1.45993e-06
1.39967e-06
1.33758e-06
1.27519e-06
1.21138e-06
1.14734e-06
1.08253e-06
1.01754e-06
9.52278e-07
8.87075e-07
8.21921e-07
7.5727e-07
6.92786e-07
6.29493e-07
5.66704e-07
5.359e-07
5.05097e-07
4.74656e-07
4.44871e-07
4.15086e-07
3.85662e-07
3.56984e-07
3.28306e-07
3.002e-07
2.72583e-07
2.44998e-07
2.1823e-07
1.91462e-07
1.65095e-07
1.38798e-07
1.12477e-07
8.58852e-08
5.87105e-08
4.48172e-08
3.04137e-08
1.55448e-08
0
)


113
(
0
5.14775e-08
9.861e-08
1.43142e-07
1.86312e-07
2.28684e-07
2.70644e-07
3.1245e-07
3.54255e-07
3.96136e-07
4.38121e-07
4.80206e-07
5.22368e-07
5.64572e-07
6.06775e-07
6.48918e-07
6.90923e-07
7.3274e-07
7.74313e-07
8.15586e-07
8.56503e-07
8.97008e-07
9.37043e-07
9.66586e-07
1.00298e-06
1.03984e-06
1.07589e-06
1.11109e-06
1.14536e-06
1.17867e-06
1.21095e-06
1.24216e-06
1.27224e-06
1.30115e-06
1.32884e-06
1.35524e-06
1.38033e-06
1.4041e-06
1.4265e-06
1.44749e-06
1.46706e-06
1.48511e-06
1.50164e-06
1.51666e-06
1.53013e-06
1.54203e-06
1.55236e-06
1.5611e-06
1.56812e-06
1.57343e-06
1.5771e-06
1.57911e-06
1.57949e-06
1.57826e-06
1.57545e-06
1.57062e-06
1.5641e-06
1.55604e-06
1.54651e-06
1.53499e-06
1.52173e-06
1.50711e-06
1.49091e-06
1.47261e-06
1.4531e-06
1.43211e-06
1.40907e-06
1.38502e-06
1.35918e-06
1.33183e-06
1.30359e-06
1.27307e-06
1.24188e-06
1.20898e-06
1.17496e-06
1.13984e-06
1.10321e-06
1.06599e-06
1.03284e-06
9.99404e-07
9.5748e-07
9.15233e-07
8.71908e-07
8.28126e-07
7.83617e-07
7.38582e-07
6.93121e-07
6.47122e-07
6.00943e-07
5.54255e-07
5.07452e-07
4.83918e-07
4.60385e-07
4.36792e-07
4.1309e-07
3.89388e-07
3.65614e-07
3.41691e-07
3.17768e-07
2.93653e-07
2.69374e-07
2.45072e-07
2.20223e-07
1.95374e-07
1.69818e-07
1.44131e-07
1.17378e-07
8.99879e-08
6.15461e-08
4.69073e-08
3.17284e-08
1.61341e-08
0
)


113
(
0
4.3761e-08
8.43598e-08
1.224e-07
1.586e-07
1.93252e-07
2.26594e-07
2.58833e-07
2.90135e-07
3.2063e-07
3.50414e-07
3.79556e-07
4.08107e-07
4.36101e-07
4.63563e-07
4.90471e-07
5.16804e-07
5.42626e-07
5.67935e-07
5.92723e-07
6.1698e-07
6.40693e-07
6.63846e-07
6.86333e-07
7.0823e-07
7.29521e-07
7.50187e-07
7.70211e-07
7.89574e-07
8.08259e-07
8.26249e-07
8.43526e-07
8.60073e-07
8.75874e-07
8.90914e-07
9.0516e-07
9.18617e-07
9.31279e-07
9.43135e-07
9.54173e-07
9.64385e-07
9.73733e-07
9.82222e-07
9.89853e-07
9.96625e-07
1.00253e-06
1.00757e-06
1.01173e-06
1.01495e-06
1.01725e-06
1.01865e-06
1.01917e-06
1.01879e-06
1.01756e-06
1.01547e-06
1.0123e-06
1.00821e-06
1.0033e-06
9.97598e-07
9.90819e-07
9.83097e-07
9.74631e-07
9.65309e-07
9.54837e-07
9.43698e-07
9.31734e-07
9.18633e-07
9.04963e-07
8.90281e-07
8.74726e-07
8.58667e-07
8.41276e-07
8.23487e-07
8.04669e-07
7.85163e-07
7.6498e-07
7.43827e-07
7.223e-07
6.99575e-07
6.76633e-07
6.52506e-07
6.28092e-07
6.02719e-07
5.76878e-07
5.50293e-07
5.2305e-07
4.95276e-07
4.66612e-07
4.37652e-07
4.07489e-07
3.76938e-07
3.61209e-07
3.45481e-07
3.29503e-07
3.13074e-07
2.96645e-07
2.79962e-07
2.62752e-07
2.45541e-07
2.27857e-07
2.09768e-07
1.91642e-07
1.72577e-07
1.53513e-07
1.33556e-07
1.13435e-07
9.22555e-08
7.05533e-08
4.80371e-08
3.64835e-08
2.45852e-08
1.24426e-08
0
)


113
(
0
2.55186e-08
4.97122e-08
7.26588e-08
9.45849e-08
1.15549e-07
1.35609e-07
1.54828e-07
1.73273e-07
1.91004e-07
2.08073e-07
2.24524e-07
2.40395e-07
2.55717e-07
2.70516e-07
2.84779e-07
2.98505e-07
3.1177e-07
3.24589e-07
3.36973e-07
3.48931e-07
3.60471e-07
3.71599e-07
3.82261e-07
3.92529e-07
4.02407e-07
4.11897e-07
4.21001e-07
4.29723e-07
4.38062e-07
4.4602e-07
4.53598e-07
4.60797e-07
4.67617e-07
4.74058e-07
4.80111e-07
4.85786e-07
4.91086e-07
4.96011e-07
5.0056e-07
5.04734e-07
5.08521e-07
5.11926e-07
5.14953e-07
5.17604e-07
5.1988e-07
5.21779e-07
5.23304e-07
5.24428e-07
5.25157e-07
5.25508e-07
5.2548e-07
5.2508e-07
5.24313e-07
5.23189e-07
5.21605e-07
5.19637e-07
5.17318e-07
5.14662e-07
5.11549e-07
5.08032e-07
5.04195e-07
4.99989e-07
4.95281e-07
4.9028e-07
4.84914e-07
4.79037e-07
4.72902e-07
4.66303e-07
4.59294e-07
4.52048e-07
4.44158e-07
4.36068e-07
4.27462e-07
4.18495e-07
4.09173e-07
3.99315e-07
3.8925e-07
3.78483e-07
3.67584e-07
3.55942e-07
3.44106e-07
3.31623e-07
3.18799e-07
3.05435e-07
2.91557e-07
2.77265e-07
2.62241e-07
2.46972e-07
2.30682e-07
2.14062e-07
2.05369e-07
1.96675e-07
1.87779e-07
1.78516e-07
1.69253e-07
1.59797e-07
1.49944e-07
1.4009e-07
1.29912e-07
1.19458e-07
1.08982e-07
9.79336e-08
8.68854e-08
7.53544e-08
6.37354e-08
5.16053e-08
3.9247e-08
2.65446e-08
2.00751e-08
1.34761e-08
6.78981e-09
0
)


113
(
0
2.229e-09
4.40363e-09
6.52175e-09
8.58942e-09
1.06057e-08
1.25697e-08
1.44816e-08
1.63421e-08
1.8152e-08
1.99124e-08
2.16241e-08
2.32879e-08
2.49046e-08
2.64747e-08
2.79953e-08
2.94643e-08
3.08878e-08
3.22664e-08
3.36002e-08
3.48895e-08
3.61344e-08
3.7335e-08
3.84848e-08
3.95912e-08
4.06544e-08
4.16745e-08
4.26516e-08
4.35859e-08
4.44773e-08
4.53262e-08
4.61325e-08
4.68963e-08
4.76179e-08
4.82973e-08
4.89337e-08
4.95282e-08
5.00814e-08
5.05935e-08
5.10644e-08
5.14943e-08
5.18822e-08
5.22287e-08
5.25344e-08
5.27997e-08
5.30246e-08
5.32093e-08
5.3354e-08
5.3456e-08
5.35159e-08
5.35357e-08
5.35154e-08
5.34555e-08
5.33568e-08
5.32202e-08
5.3035e-08
5.28091e-08
5.2546e-08
5.2247e-08
5.18996e-08
5.15091e-08
5.10845e-08
5.06205e-08
5.01029e-08
4.95537e-08
4.89655e-08
4.83223e-08
4.76513e-08
4.69303e-08
4.6165e-08
4.53742e-08
4.45137e-08
4.36317e-08
4.2694e-08
4.17176e-08
4.07029e-08
3.96313e-08
3.85375e-08
3.737e-08
3.61887e-08
3.49308e-08
3.36533e-08
3.2311e-08
3.09356e-08
2.95079e-08
2.80327e-08
2.65193e-08
2.49419e-08
2.33431e-08
2.1661e-08
1.9954e-08
1.90716e-08
1.81892e-08
1.72927e-08
1.63709e-08
1.54492e-08
1.45153e-08
1.35563e-08
1.25974e-08
1.162e-08
1.06268e-08
9.6324e-09
8.60838e-09
7.58436e-09
6.53749e-09
5.48647e-09
4.41319e-09
3.33065e-09
2.23446e-09
1.68184e-09
1.12448e-09
5.64032e-10
0
)

)


10
(

113
(
0
2.27037e-29
1.99462e-28
8.67447e-28
2.75541e-27
7.89978e-27
2.19248e-26
6.12623e-26
1.76949e-25
5.36174e-25
1.72772e-24
5.69e-24
1.815e-23
5.35846e-23
1.66431e-22
6.60333e-22
2.738e-21
1.09554e-20
3.58583e-20
1.41442e-19
7.29385e-19
3.968e-18
2.23e-17
1.11615e-16
4.04692e-16
2.9435e-15
2.1525e-14
1.50367e-13
9.3975e-13
4.61e-12
2.251e-11
1.63145e-10
9.98e-10
5.16e-09
2.32764e-08
9.49273e-08
3.25182e-07
9.41818e-07
2.33e-06
4.98455e-06
8.51455e-06
1.2248e-05
1.47455e-05
1.617e-05
1.68182e-05
1.73273e-05
1.80545e-05
1.9e-05
1.99667e-05
2.08e-05
2.11846e-05
2.10083e-05
2.02231e-05
1.89429e-05
1.71571e-05
1.49143e-05
1.25286e-05
1.01e-05
7.96e-06
6.09e-06
4.49e-06
3.30625e-06
2.29437e-06
1.57562e-06
1.08371e-06
6.89e-07
4.91222e-07
3.13111e-07
2.13667e-07
1.35156e-07
8.80444e-08
5.68526e-08
3.62737e-08
2.37263e-08
1.46211e-08
9.792e-09
6.032e-09
4.024e-09
2.454e-09
1.618e-09
9.655e-10
6.254e-10
3.634e-10
2.25947e-10
1.19632e-10
7.6195e-11
3.9745e-11
2.405e-11
1.15789e-11
7.36778e-12
3.96647e-12
3.21059e-12
2.45471e-12
1.78706e-12
1.47237e-12
1.15769e-12
8.43e-13
6.91333e-13
5.39667e-13
3.88e-13
2.98417e-13
2.08833e-13
1.45427e-13
9.94727e-14
6.19222e-14
3.69778e-14
1.92257e-14
7.79667e-15
2.48e-15
1.295e-15
3.495e-16
4.3225e-17
0
)


113
(
0
3.47201e-22
1.03568e-20
1.50707e-19
1.3888e-18
1.03196e-17
7.3148e-17
4.57102e-16
2.61076e-15
1.35217e-14
6.07558e-14
2.35278e-13
7.76901e-13
2.30593e-12
7.2834e-12
2.2542e-11
6.3872e-11
1.66556e-10
3.68291e-10
8.44712e-10
2.02335e-09
4.33686e-09
8.71715e-09
1.65486e-08
3.00112e-08
5.54735e-08
9.86309e-08
1.66415e-07
2.67703e-07
4.13516e-07
6.26414e-07
9.25785e-07
1.3295e-06
1.84427e-06
2.4786e-06
3.25011e-06
4.15535e-06
5.1859e-06
6.3269e-06
7.55873e-06
8.83919e-06
1.01283e-05
1.13856e-05
1.25766e-05
1.36523e-05
1.45854e-05
1.5353e-05
1.59261e-05
1.62976e-05
1.64518e-05
1.6323e-05
1.60024e-05
1.54731e-05
1.47698e-05
1.38762e-05
1.28366e-05
1.17162e-05
1.05293e-05
9.30756e-06
8.10838e-06
6.93174e-06
5.86096e-06
4.85074e-06
3.95434e-06
3.18843e-06
2.47844e-06
1.95897e-06
1.47301e-06
1.12103e-06
8.20549e-07
5.97302e-07
4.29268e-07
2.98043e-07
2.09152e-07
1.38405e-07
9.62873e-08
6.13274e-08
4.15976e-08
2.56753e-08
1.70456e-08
1.02391e-08
6.65525e-09
3.87707e-09
2.44912e-09
1.35873e-09
8.75881e-10
4.60541e-10
2.84527e-10
1.44465e-10
8.86516e-11
4.36716e-11
3.38212e-11
2.39708e-11
1.54147e-11
1.2036e-11
8.65722e-12
5.27848e-12
4.08838e-12
2.89828e-12
1.70817e-12
1.27072e-12
8.33274e-13
5.48854e-13
3.66455e-13
2.2366e-13
1.40271e-13
8.12525e-14