/*--------------------------------*- C++ -*----------------------------------*\
| =========                 |                                                 |
| \\      /  F ield         | OpenFOAM: The Open Source CFD Toolbox           |
|  \\    /   O peration     | Version:  2.3.0                                 |
|   \\  /    A nd           | Web:      www.OpenFOAM.org                      |
|    \\/     M anipulation  |                                                 |
\*---------------------------------------------------------------------------*/
FoamFile
{
    version     2.0;
    format      ascii;
    class       dictionary;
    location    "constant";
    object      HCN;
}
// * * * * * * * * * * * * * * * * * * * * * * * * * * * * * * * * * * * * * //

HCN_table
13
(

10
(

113
(
0
1.05492e-17
2.45651e-17
4.0327e-17
5.69114e-17
7.43024e-17
9.23183e-17
1.10996e-16
1.30041e-16
1.4953e-16
1.71384e-16
1.96436e-16
2.24e-16
2.66767e-16
3.26634e-16
4.11106e-16
5.89472e-16
8.5164e-16
1.40835e-15
2.58368e-15
4.30761e-15
9.59463e-15
1.90963e-14
3.94667e-14
1.00607e-13
1.92913e-13
6.88565e-13
2.85248e-12
7.41708e-12
5.1535e-11
2.27524e-10
8.62399e-10
5.24956e-09
1.30333e-08
6.97e-08
2.49506e-07
5.92544e-07
1.84153e-06
3.89873e-06
7.70886e-06
1.36409e-05
2.07286e-05
2.93e-05
3.77449e-05
4.60683e-05
5.31295e-05
5.97654e-05
6.4905e-05
6.95416e-05
7.31092e-05
7.60053e-05
7.81444e-05
7.95625e-05
8.05e-05
8.08345e-05
8.08853e-05
8.04079e-05
7.97149e-05
7.86333e-05
7.73773e-05
7.58667e-05
7.42e-05
7.23794e-05
7.04168e-05
6.83731e-05
6.61972e-05
6.39954e-05
6.17018e-05
5.94073e-05
5.70891e-05
5.47709e-05
5.24995e-05
5.02371e-05
4.79811e-05
4.57288e-05
4.35214e-05
4.13786e-05
3.92465e-05
3.71668e-05
3.50872e-05
3.3096e-05
3.11137e-05
2.9154e-05
2.72071e-05
2.53013e-05
2.34628e-05
2.16248e-05
1.97899e-05
1.7955e-05
1.61828e-05
1.44124e-05
1.35602e-05
1.27184e-05
1.18765e-05
1.10347e-05
1.02016e-05
9.37011e-06
8.53865e-06
7.72291e-06
6.94759e-06
6.17228e-06
5.40313e-06
4.67925e-06
3.95537e-06
3.2587e-06
2.59667e-06
1.95407e-06
1.36148e-06
8.14679e-07
5.56e-07
3.31e-07
1.35952e-07
0
)


113
(
0
1.19536e-17
2.63805e-17
4.27115e-17
6.47488e-17
1.16949e-16
2.86213e-16
1.60792e-15
8.8614e-15
2.76279e-14
1.28354e-13
5.70088e-13
1.27976e-12
5.6672e-12
1.82529e-11
4.26363e-11
1.34036e-10
2.98905e-10
7.40673e-10
1.83435e-09
3.50613e-09
8.49053e-09
1.63906e-08
3.15415e-08
6.17721e-08
1.01519e-07
1.9194e-07
3.231e-07
5.12884e-07
8.42514e-07
1.26643e-06
1.91352e-06
2.81295e-06
3.88469e-06
5.49417e-06
7.38997e-06
9.66532e-06
1.25558e-05
1.57465e-05
1.94556e-05
2.35741e-05
2.79245e-05
3.2627e-05
3.74025e-05
4.2248e-05
4.69535e-05
5.15816e-05
5.5799e-05
5.97843e-05
6.32766e-05
6.63543e-05
6.89645e-05
7.10212e-05
7.27089e-05
7.37915e-05
7.45895e-05
7.48256e-05
7.48323e-05
7.43794e-05
7.372e-05
7.27309e-05
7.15398e-05
7.0144e-05
6.85594e-05
6.68691e-05
6.50061e-05
6.31035e-05
6.10599e-05
5.90123e-05
5.68678e-05
5.47232e-05
5.25467e-05
5.03641e-05
4.81867e-05
4.60123e-05
4.38537e-05
4.17179e-05
3.95917e-05
3.75127e-05
3.54337e-05
3.34136e-05
3.13994e-05
2.94272e-05
2.74788e-05
2.5554e-05
2.3668e-05
2.17908e-05
1.99639e-05
1.81371e-05
1.63672e-05
1.45992e-05
1.37388e-05
1.2886e-05
1.20332e-05
1.11803e-05
1.03573e-05
9.53995e-06
8.72258e-06
7.91703e-06
7.14183e-06
6.36664e-06
5.59746e-06
4.87234e-06
4.14722e-06
3.44731e-06
2.77949e-06
2.1287e-06
1.52169e-06
9.5344e-07
6.81647e-07
4.36859e-07
2.09677e-07
0
)


113
(
0
8.88893e-11
3.045e-10
7.79901e-10
1.67246e-09
3.20029e-09
5.76046e-09
1.05322e-08
1.76724e-08
2.72168e-08
4.30097e-08
6.57602e-08
9.39774e-08
1.41156e-07
1.99782e-07
2.74883e-07
3.83772e-07
5.11307e-07
6.88633e-07
9.0565e-07
1.15786e-06
1.5037e-06
1.89528e-06
2.38742e-06
2.97457e-06
3.61861e-06
4.43147e-06
5.32908e-06
6.34865e-06
7.53901e-06
8.82132e-06
1.02889e-05
1.18975e-05
1.36008e-05
1.55253e-05
1.75404e-05
1.96757e-05
2.19655e-05
2.43207e-05
2.67786e-05
2.93065e-05
3.18711e-05
3.44745e-05
3.70699e-05
3.96575e-05
4.21721e-05
4.46564e-05
4.70081e-05
4.92857e-05
5.14054e-05
5.3381e-05
5.51941e-05
5.67889e-05
5.82383e-05
5.9411e-05
6.04534e-05
6.11969e-05
6.18183e-05
6.21328e-05
6.23094e-05
6.22171e-05
6.196e-05
6.15014e-05
6.08567e-05
6.00781e-05
5.90813e-05
5.80201e-05
5.67307e-05
5.54317e-05
5.39022e-05
5.23726e-05
5.06918e-05
4.89821e-05
4.71966e-05
4.53666e-05
4.35063e-05
4.16027e-05
3.96925e-05
3.77504e-05
3.58083e-05
3.38616e-05
3.19145e-05
2.998e-05
2.80526e-05
2.61395e-05
2.42495e-05
2.23671e-05
2.05275e-05
1.86879e-05
1.69084e-05
1.51308e-05
1.42664e-05
1.34098e-05
1.25532e-05
1.16965e-05
1.08703e-05
1.005e-05
9.22961e-06
8.41697e-06
7.62417e-06
6.83138e-06
6.04486e-06
5.30431e-06
4.56376e-06
3.84245e-06
3.14565e-06
2.46155e-06
1.81008e-06
1.18985e-06
8.89123e-07
6.0382e-07
3.17262e-07
0
)


113
(
0
2.31355e-08
5.29228e-08
9.41491e-08
1.48183e-07
2.16617e-07
3.02889e-07
4.1349e-07
5.45199e-07
6.96632e-07
8.88132e-07
1.1088e-06
1.35239e-06
1.66529e-06
2.00226e-06
2.37386e-06
2.81517e-06
3.28969e-06
3.84127e-06
4.43686e-06
5.07147e-06
5.79623e-06
6.55984e-06
7.40552e-06
8.30931e-06
9.24789e-06
1.02898e-05
1.13809e-05
1.2543e-05
1.37617e-05
1.50147e-05
1.63437e-05
1.77135e-05
1.9111e-05
2.05835e-05
2.20743e-05
2.35894e-05
2.51323e-05
2.66859e-05
2.82553e-05
2.98215e-05
3.13838e-05
3.29276e-05
3.4449e-05
3.59491e-05
3.73937e-05
3.88175e-05
4.01581e-05
4.14618e-05
4.26868e-05
4.38424e-05
4.49197e-05
4.58876e-05
4.67824e-05
4.75584e-05
4.82783e-05
4.88485e-05
4.93575e-05
4.97022e-05
4.99731e-05
5.01014e-05
5.01422e-05
5.00582e-05
4.9859e-05
4.95712e-05
4.91388e-05
4.86548e-05
4.79885e-05
4.73139e-05
4.64397e-05
4.55655e-05
4.45364e-05
4.34778e-05
4.23063e-05
4.10684e-05
3.97742e-05
3.83991e-05
3.70037e-05
3.55095e-05
3.40153e-05
3.24337e-05
3.08434e-05
2.92205e-05
2.75793e-05
2.59105e-05
2.41965e-05
2.24788e-05
2.07393e-05
1.89999e-05
1.72949e-05
1.55909e-05
1.47483e-05
1.39086e-05
1.30689e-05
1.22292e-05
1.14058e-05
1.05854e-05
9.76502e-06
8.95158e-06
8.15601e-06
7.36044e-06
6.56853e-06
5.80345e-06
5.03836e-06
4.28931e-06
3.56068e-06
2.84183e-06
2.14814e-06
1.46397e-06
1.12353e-06
7.7366e-07
4.07347e-07
0
)


113
(
0
1.72985e-07
3.48675e-07
5.44916e-07
7.66074e-07
1.01401e-06
1.29252e-06
1.60743e-06
1.9503e-06
2.31823e-06
2.73131e-06
3.17319e-06
3.6377e-06
4.15579e-06
4.69634e-06
5.2692e-06
5.88625e-06
6.52365e-06
7.20655e-06
7.91762e-06
8.65366e-06
9.43538e-06
1.02345e-05
1.10687e-05
1.19497e-05
1.28577e-05
1.38004e-05
1.47475e-05
1.57009e-05
1.66785e-05
1.76662e-05
1.86691e-05
1.96787e-05
2.06928e-05
2.17208e-05
2.27428e-05
2.37571e-05
2.47723e-05
2.57795e-05
2.67648e-05
2.77347e-05
2.86946e-05
2.96318e-05
3.05468e-05
3.14403e-05
3.22902e-05
3.31247e-05
3.39021e-05
3.46587e-05
3.53707e-05
3.60397e-05
3.66601e-05
3.72226e-05
3.77467e-05
3.82038e-05
3.86293e-05
3.89624e-05
3.92577e-05
3.9476e-05
3.96597e-05
3.97595e-05
3.9808e-05
3.97775e-05
3.96742e-05
3.95194e-05
3.92804e-05
3.90128e-05
3.86437e-05
3.82681e-05
3.77335e-05
3.7199e-05
3.65292e-05
3.58336e-05
3.50554e-05
3.42285e-05
3.33394e-05
3.23608e-05
3.13692e-05
3.03141e-05
2.92589e-05
2.81061e-05
2.69436e-05
2.57207e-05
2.4464e-05
2.31771e-05
2.1841e-05
2.04954e-05
1.90959e-05
1.76965e-05
1.62522e-05
1.48066e-05
1.40731e-05
1.33362e-05
1.25993e-05
1.18624e-05
1.1122e-05
1.03809e-05
9.63975e-06
8.90023e-06
8.16483e-06
7.42943e-06
6.69556e-06
5.97289e-06
5.25022e-06
4.53218e-06
3.82005e-06
3.10636e-06
2.38864e-06
1.65034e-06
1.27382e-06
8.73569e-07
4.54367e-07
0
)


113
(
0
4.06072e-07
7.87232e-07
1.16789e-06
1.55933e-06
1.96625e-06
2.39298e-06
2.8442e-06
3.31387e-06
3.79989e-06
4.3139e-06
4.84439e-06
5.38783e-06
5.95928e-06
6.54142e-06
7.13893e-06
7.75551e-06
8.3805e-06
9.02323e-06
9.67583e-06
1.03372e-05
1.10126e-05
1.1693e-05
1.23827e-05
1.30784e-05
1.37778e-05
1.44832e-05
1.519e-05
1.58985e-05
1.66068e-05
1.73143e-05
1.8019e-05
1.87195e-05
1.94164e-05
2.00709e-05
2.07337e-05
2.14075e-05
2.2067e-05
2.27188e-05
2.3356e-05
2.39774e-05
2.45885e-05
2.51767e-05
2.58689e-05
2.6661e-05
2.72932e-05
2.78865e-05
2.8411e-05
2.89072e-05
2.93432e-05
2.97399e-05
3.00924e-05
3.03856e-05
3.06393e-05
3.0825e-05
3.09786e-05
3.08204e-05
3.05349e-05
3.04927e-05
3.05598e-05
3.05764e-05
3.05621e-05
3.05034e-05
3.04038e-05
3.02705e-05
3.00824e-05
2.98882e-05
2.96726e-05
2.94505e-05
2.90704e-05
2.86904e-05
2.82337e-05
2.77624e-05
2.72337e-05
2.66712e-05
2.60717e-05
2.54187e-05
2.47506e-05
2.40086e-05
2.32665e-05
2.24458e-05
2.16174e-05
2.07364e-05
1.9826e-05
1.88868e-05
1.79008e-05
1.69048e-05
1.5852e-05
1.47992e-05
1.36925e-05
1.25841e-05
1.20139e-05
1.14386e-05
1.08633e-05
1.02879e-05
9.70013e-06
9.10994e-06
8.51975e-06
7.92636e-06
7.32474e-06
6.72312e-06
6.11985e-06
5.50446e-06
4.88907e-06
4.26338e-06
3.62457e-06
2.97514e-06
2.29835e-06
1.58843e-06
1.22284e-06
8.33238e-07
4.28755e-07
0
)


113
(
0
5.59515e-07
1.07718e-06
1.57036e-06
2.05211e-06
2.52866e-06
3.0041e-06
3.48239e-06
3.96425e-06
4.44962e-06
4.94219e-06
5.43928e-06
5.93994e-06
6.44818e-06
6.95906e-06
7.47375e-06
7.99244e-06
8.51269e-06
9.03572e-06
9.55958e-06
1.00842e-05
1.06087e-05
1.11107e-05
1.1549e-05
1.20292e-05
1.25328e-05
1.30291e-05
1.35216e-05
1.40086e-05
1.44868e-05
1.49601e-05
1.54233e-05
1.58777e-05
1.63261e-05
1.67588e-05
1.71838e-05
1.75987e-05
1.79973e-05
1.83873e-05
1.87622e-05
1.91216e-05
1.94712e-05
1.97997e-05
2.01147e-05
2.04167e-05
2.06944e-05
2.0964e-05
2.12054e-05
2.14357e-05
2.16424e-05
2.18318e-05
2.20015e-05
2.21475e-05
2.22777e-05
2.23791e-05
2.2467e-05
2.25229e-05
2.25657e-05
2.25755e-05
2.25704e-05
2.25341e-05
2.24787e-05
2.23959e-05
2.22879e-05
2.21591e-05
2.19964e-05
2.18213e-05
2.16024e-05
2.13812e-05
2.11047e-05
2.08282e-05
2.05025e-05
2.01675e-05
1.97953e-05
1.94013e-05
1.8983e-05
1.85298e-05
1.80788e-05
1.76383e-05
1.71979e-05
1.66261e-05
1.60412e-05
1.54223e-05
1.47843e-05
1.4127e-05
1.34383e-05
1.27426e-05
1.20067e-05
1.12707e-05
1.04923e-05
9.71261e-06
9.30699e-06
8.89639e-06
8.48579e-06
8.07519e-06
7.64691e-06
7.21526e-06
6.78361e-06
6.3453e-06
5.88985e-06
5.43439e-06
4.97543e-06
4.49069e-06
4.00595e-06
3.50526e-06
2.98425e-06
2.45153e-06
1.88871e-06
1.29796e-06
9.93952e-07
6.73264e-07
3.43525e-07
0
)


113
(
0
5.4464e-07
1.05381e-06
1.53411e-06
1.99384e-06
2.43721e-06
2.8662e-06
3.28242e-06
3.69083e-06
4.09279e-06
4.48541e-06
4.87319e-06
5.25716e-06
5.63335e-06
6.00653e-06
6.37538e-06
6.73844e-06
7.09877e-06
7.45292e-06
7.80292e-06
8.14926e-06
8.48812e-06
8.82383e-06
9.15295e-06
9.476e-06
9.79541e-06
1.01048e-05
1.04098e-05
1.07084e-05
1.09977e-05
1.12821e-05
1.15569e-05
1.18237e-05
1.20853e-05
1.23335e-05
1.25756e-05
1.28095e-05
1.30308e-05
1.32457e-05
1.34493e-05
1.36417e-05
1.38272e-05
1.39978e-05
1.41592e-05
1.43118e-05
1.44482e-05
1.45793e-05
1.46919e-05
1.47975e-05
1.48882e-05
1.49679e-05
1.50354e-05
1.50883e-05
1.51315e-05
1.51574e-05
1.5175e-05
1.51736e-05
1.51645e-05
1.51359e-05
1.50987e-05
1.50433e-05
1.49768e-05
1.48947e-05
1.4798e-05
1.46896e-05
1.45619e-05
1.44272e-05
1.42678e-05
1.41072e-05
1.39156e-05
1.3724e-05
1.35051e-05
1.3281e-05
1.30362e-05
1.27793e-05
1.2509e-05
1.22191e-05
1.19237e-05
1.16007e-05
1.12777e-05
1.09244e-05
1.0568e-05
1.01902e-05
9.80031e-06
9.39752e-06
8.97372e-06
8.54471e-06
8.08614e-06
7.62757e-06
7.13363e-06
6.6386e-06
6.37616e-06
6.109e-06
5.84185e-06
5.57469e-06
5.28934e-06
5.00052e-06
4.71171e-06
4.4161e-06
4.10303e-06
3.78995e-06
3.47365e-06
3.13364e-06
2.79364e-06
2.44105e-06
2.07244e-06
1.69598e-06
1.29934e-06
8.86474e-07
6.75111e-07
4.55089e-07
2.30723e-07
0
)


113
(
0
3.60693e-07
7.04124e-07
1.03112e-06
1.34452e-06
1.6457e-06
1.93469e-06
2.2111e-06
2.47886e-06
2.73917e-06
2.98743e-06
3.22885e-06
3.46489e-06
3.6894e-06
3.90945e-06
4.12309e-06
4.32847e-06
4.53011e-06
4.72355e-06
4.91198e-06
5.09597e-06
5.27174e-06
5.4443e-06
5.6103e-06
5.77077e-06
5.92796e-06
6.07682e-06
6.22223e-06
6.36269e-06
6.4965e-06
6.6269e-06
6.75075e-06
6.86954e-06
6.98491e-06
7.09214e-06
7.19577e-06
7.29465e-06
7.38639e-06
7.47459e-06
7.55661e-06
7.63276e-06
7.70522e-06
7.77003e-06
7.83023e-06
7.88599e-06
7.93376e-06
7.97893e-06
8.01524e-06
8.04822e-06
8.07411e-06
8.09495e-06
8.11007e-06
8.11852e-06
8.12252e-06
8.11866e-06
8.11111e-06
8.09504e-06
8.07549e-06
8.04733e-06
8.01531e-06
7.9753e-06
7.9304e-06
7.87858e-06
7.82039e-06
7.757e-06
7.68512e-06
7.61015e-06
7.52422e-06
7.43772e-06
7.33733e-06
7.23695e-06
7.12406e-06
7.00878e-06
6.88383e-06
6.75318e-06
6.61598e-06
6.46935e-06
6.31986e-06
6.15642e-06
5.99298e-06
5.81336e-06
5.63214e-06
5.4388e-06
5.23864e-06
5.0308e-06
4.8104e-06
4.58674e-06
4.34457e-06
4.10239e-06
3.83746e-06
3.57183e-06
3.42947e-06
3.2841e-06
3.13872e-06
2.99335e-06
2.83687e-06
2.67827e-06
2.51967e-06
2.35726e-06
2.18505e-06
2.01283e-06
1.83899e-06
1.65323e-06
1.46746e-06
1.2761e-06
1.0776e-06
8.75998e-07
6.66402e-07
4.51008e-07
3.41569e-07
2.29266e-07
1.15602e-07
0
)


113
(
0
3.53898e-08
6.99395e-08
1.03607e-07
1.36475e-07
1.68568e-07
1.99827e-07
2.30142e-07
2.59757e-07
2.88753e-07
3.16669e-07
3.43921e-07
3.7065e-07
3.96178e-07
4.21213e-07
4.45538e-07
4.68902e-07
4.91821e-07
5.13746e-07
5.35044e-07
5.55786e-07
5.75476e-07
5.94749e-07
6.13168e-07
6.30862e-07
6.48124e-07
6.64289e-07
6.8e-07
6.95058e-07
7.09244e-07
7.22984e-07
7.35872e-07
7.48106e-07
7.59901e-07
7.70655e-07
7.80957e-07
7.90659e-07
7.99473e-07
8.0785e-07
8.15469e-07
8.22375e-07
8.28836e-07
8.34383e-07
8.39385e-07
8.43864e-07
8.47414e-07
8.50661e-07
8.5289e-07
8.54742e-07
8.5579e-07
8.5627e-07
8.5611e-07
8.55211e-07
8.5382e-07
8.51566e-07
8.48907e-07
8.45323e-07
8.41361e-07
8.36472e-07
8.31168e-07
8.25011e-07
8.18331e-07
8.1092e-07
8.02833e-07
7.94199e-07
7.84673e-07
7.74825e-07
7.63835e-07
7.52785e-07
7.40301e-07
7.27817e-07
7.14055e-07
7.0005e-07
6.85071e-07
6.69518e-07
6.53318e-07
6.36186e-07
6.18779e-07
6.00028e-07
5.81278e-07
5.61019e-07
5.40612e-07
5.19125e-07
4.97031e-07
4.74289e-07
4.50491e-07
4.26437e-07
4.00931e-07
3.75425e-07
3.48282e-07
3.21088e-07
3.0687e-07
2.92456e-07
2.78041e-07
2.63627e-07
2.48566e-07
2.33381e-07
2.18196e-07
2.02814e-07
1.86923e-07
1.71033e-07
1.55067e-07
1.38553e-07
1.22038e-07
1.05292e-07
8.82512e-08
7.10943e-08
5.3638e-08
3.59807e-08
2.70922e-08
1.811e-08
9.08497e-09
0
)

)


10
(

113
(
0
1.81445e-15
4.30375e-15
7.09456e-15
1.00618e-14
1.31622e-14
1.63675e-14
1.96651e-14
2.30651e-14
2.66137e-14
3.04206e-14
3.47037e-14
3.98693e-14
4.66169e-14
5.60805e-14
7.07524e-14
9.66106e-14
1.42612e-13
2.28391e-13
3.95668e-13
7.35017e-13
1.44321e-12
2.93971e-12
7.0605e-12
1.80122e-11
4.82525e-11
1.33855e-10
3.79438e-10
1.08559e-09
3.09692e-09
8.71159e-09
2.39612e-08
6.40906e-08
1.65221e-07
4.08339e-07
9.70463e-07
2.14805e-06
4.35992e-06
8.0786e-06
1.36097e-05
2.08443e-05
2.91314e-05
3.74472e-05
4.49634e-05
5.12534e-05
5.625e-05
6.00823e-05
6.29468e-05
6.49732e-05
6.63347e-05
6.71668e-05
6.75447e-05
6.75373e-05
6.72007e-05
6.6583e-05
6.5668e-05
6.45563e-05
6.32957e-05
6.1913e-05
6.0405e-05
5.88246e-05
5.72016e-05
5.55415e-05
5.38581e-05
5.21693e-05
5.04773e-05
4.8792e-05
4.71111e-05
4.54395e-05
4.37788e-05
4.21246e-05
4.04886e-05
3.88578e-05
3.72403e-05
3.56324e-05
3.4034e-05
3.245e-05
3.08716e-05
2.93112e-05
2.77541e-05
2.62159e-05
2.46826e-05
2.31655e-05
2.16567e-05
2.01611e-05
1.86784e-05
1.72061e-05
1.57533e-05
1.4307e-05
1.28901e-05
1.14838e-05
1.07929e-05
1.0102e-05
9.4186e-06
8.74867e-06
8.07874e-06
7.41683e-06
6.77153e-06
6.12624e-06
5.49668e-06
4.88053e-06
4.26572e-06
3.68466e-06
3.1036e-06
2.55676e-06
2.01623e-06
1.52032e-06
1.04977e-06
6.21841e-07
4.25228e-07
2.52668e-07
1.03873e-07
0
)


113
(
0
2.0804e-15
4.61946e-15
7.43305e-15
1.04997e-14
1.40305e-14
1.91309e-14
3.0785e-14
6.81244e-14
1.97606e-13
6.6372e-13
2.21129e-12
6.88918e-12
1.96402e-11
5.09098e-11
1.28434e-10
3.38133e-10
8.31475e-10
1.91719e-09
4.16346e-09
8.55893e-09
1.67444e-08
3.13914e-08
5.98642e-08
1.09242e-07
1.91434e-07
3.23294e-07
5.27408e-07
8.33324e-07
1.27687e-06
1.89952e-06
2.74971e-06
3.87803e-06
5.3338e-06
7.16004e-06
9.39991e-06
1.20572e-05
1.51212e-05
1.85623e-05
2.23233e-05
2.63336e-05
3.04997e-05
3.47225e-05
3.88885e-05
4.28965e-05
4.66507e-05
5.00761e-05
5.3123e-05
5.57252e-05
5.78567e-05
5.95396e-05
6.0785e-05
6.16248e-05
6.20946e-05
6.22299e-05
6.19928e-05
6.14945e-05
6.07883e-05
5.99032e-05
5.88184e-05
5.75988e-05
5.62888e-05
5.48882e-05
5.34017e-05
5.18782e-05
5.03141e-05
4.87161e-05
4.71067e-05
4.54823e-05
4.38545e-05
4.22246e-05
4.05992e-05
3.89769e-05
3.7363e-05
3.5757e-05
3.41586e-05
3.25732e-05
3.09927e-05
2.943e-05
2.78706e-05
2.63303e-05
2.47949e-05
2.32761e-05
2.17662e-05
2.02703e-05
1.87881e-05
1.7317e-05
1.58665e-05
1.44229e-05
1.30102e-05
1.16084e-05
1.09201e-05
1.02319e-05
9.5511e-06
8.8839e-06
8.21669e-06
7.55754e-06
6.91503e-06
6.27251e-06
5.64557e-06
5.03188e-06
4.41947e-06
3.83915e-06
3.25883e-06
2.71059e-06
2.16825e-06
1.66685e-06
1.18523e-06
7.37834e-07
5.28478e-07
3.36917e-07
1.61352e-07
0
)


113
(
0
1.25238e-10
4.25793e-10
1.0859e-09
2.29549e-09
4.40203e-09
7.94642e-09
1.36855e-08
2.26218e-08
3.60205e-08
5.56872e-08
8.35244e-08
1.22012e-07
1.74361e-07
2.44182e-07
3.36977e-07
4.6172e-07
6.20663e-07
8.19822e-07
1.06624e-06
1.36749e-06
1.73153e-06
2.16806e-06
2.69963e-06
3.32314e-06
4.04183e-06
4.86565e-06
5.80342e-06
6.86109e-06
8.04291e-06
9.35123e-06
1.07842e-05
1.23423e-05
1.4019e-05
1.58072e-05
1.76974e-05
1.9675e-05
2.17331e-05
2.38535e-05
2.60142e-05
2.81993e-05
3.03894e-05
3.25591e-05
3.4694e-05
3.67725e-05
3.87748e-05
4.06728e-05
4.24611e-05
4.41214e-05
4.56287e-05
4.69806e-05
4.81647e-05
4.91812e-05
5.00307e-05
5.07116e-05
5.11759e-05
5.1461e-05
5.15898e-05
5.15726e-05
5.13641e-05
5.09973e-05
5.05117e-05
4.98942e-05
4.91179e-05
4.82582e-05
4.72988e-05
4.62217e-05
4.5092e-05
4.38748e-05
4.25967e-05
4.12833e-05
3.98975e-05
3.84951e-05
3.70513e-05
3.55887e-05
3.41075e-05
3.26102e-05
3.11067e-05
2.95949e-05
2.80824e-05
2.65712e-05
2.50622e-05
2.35607e-05
2.20655e-05
2.05803e-05
1.91072e-05
1.7644e-05
1.62009e-05
1.47644e-05
1.33607e-05
1.19689e-05
1.12869e-05
1.0605e-05
9.92975e-06
9.26674e-06
8.60374e-06
7.94681e-06
7.30243e-06
6.65805e-06
6.02481e-06
5.40107e-06
4.77863e-06
4.18919e-06
3.59975e-06
3.03448e-06
2.47364e-06
1.94156e-06
1.42513e-06
9.34466e-07
6.99183e-07
4.74327e-07
2.49616e-07
0
)


113
(
0
2.50699e-08
5.70903e-08
1.01253e-07
1.58579e-07
2.3148e-07
3.22665e-07
4.34882e-07
5.70863e-07
7.33268e-07
9.24682e-07
1.14764e-06
1.40555e-06
1.70175e-06
2.03798e-06
2.41742e-06
2.84595e-06
3.31972e-06
3.8401e-06
4.41093e-06
5.03447e-06
5.71039e-06
6.44395e-06
7.23524e-06
8.07853e-06
8.97271e-06
9.92033e-06
1.09221e-05
1.19726e-05
1.30644e-05
1.41952e-05
1.53663e-05
1.65775e-05
1.78225e-05
1.9091e-05
2.03829e-05
2.16893e-05
2.2999e-05
2.43077e-05
2.56141e-05
2.69158e-05
2.8194e-05
2.94493e-05
3.06721e-05
3.18601e-05
3.30058e-05
3.41041e-05
3.51413e-05
3.61159e-05
3.70295e-05
3.78702e-05
3.86321e-05
3.93187e-05
3.99288e-05
4.0456e-05
4.08756e-05
4.12081e-05
4.14603e-05
4.16346e-05
4.17002e-05
4.16692e-05
4.1562e-05
4.13668e-05
4.10613e-05
4.06922e-05
4.02446e-05
3.96918e-05
3.90878e-05
3.83944e-05
3.76289e-05
3.68217e-05
3.59133e-05
3.49767e-05
3.39679e-05
3.29161e-05
3.1822e-05
3.06731e-05
2.9503e-05
2.82828e-05
2.70534e-05
2.57731e-05
2.44859e-05
2.31765e-05
2.18538e-05
2.05103e-05
1.91519e-05
1.77814e-05
1.64006e-05
1.50163e-05
1.36646e-05
1.23177e-05
1.16498e-05
1.09818e-05
1.03179e-05
9.66123e-06
9.00457e-06
8.35253e-06
7.71006e-06
7.06759e-06
6.43417e-06
5.80847e-06
5.18352e-06
4.57749e-06
3.97146e-06
3.38492e-06
2.80197e-06
2.24283e-06
1.69329e-06
1.15442e-06
8.86198e-07
6.11222e-07
3.22045e-07
0
)


113
(
0
1.67558e-07
3.36324e-07
5.24347e-07
7.35149e-07
9.71702e-07
1.23588e-06
1.5286e-06
1.85026e-06
2.20097e-06
2.58072e-06
2.98947e-06
3.4271e-06
3.89355e-06
4.38862e-06
4.91418e-06
5.47143e-06
6.05628e-06
6.66811e-06
7.30624e-06
7.96991e-06
8.65822e-06
9.37021e-06
1.01078e-05
1.08727e-05
1.16688e-05
1.24887e-05
1.33162e-05
1.41501e-05
1.49952e-05
1.58426e-05
1.66988e-05
1.75562e-05
1.84129e-05
1.92724e-05
2.01243e-05
2.09679e-05
2.18042e-05
2.26244e-05
2.34418e-05
2.42444e-05
2.50223e-05
2.57718e-05
2.65038e-05
2.72094e-05
2.78864e-05
2.85315e-05
2.91481e-05
2.9721e-05
3.02584e-05
3.07588e-05
3.12161e-05
3.16303e-05
3.20002e-05
3.23234e-05
3.25956e-05
3.28205e-05
3.29974e-05
3.31265e-05
3.31942e-05
3.32123e-05
3.31863e-05
3.31052e-05
3.29522e-05
3.27618e-05
3.25269e-05
3.22109e-05
3.18606e-05
3.14553e-05
3.09932e-05
3.04981e-05
2.99122e-05
2.92959e-05
2.86001e-05
2.7866e-05
2.70942e-05
2.62738e-05
2.54346e-05
2.45495e-05
2.3655e-05
2.27005e-05
2.17325e-05
2.07199e-05
1.96878e-05
1.86246e-05
1.75378e-05
1.64321e-05
1.53009e-05
1.41612e-05
1.29964e-05
1.18265e-05
1.12358e-05
1.06451e-05
1.00531e-05
9.45894e-06
8.86476e-06
8.27108e-06
7.67844e-06
7.0858e-06
6.49658e-06
5.91027e-06
5.32433e-06
4.74749e-06
4.17066e-06
3.60119e-06
3.03302e-06
2.46689e-06
1.8957e-06
1.31125e-06
1.01098e-06
6.94624e-07
3.61223e-07
0
)


113
(
0
3.70105e-07
7.15229e-07
1.05914e-06
1.41174e-06
1.77809e-06
2.16108e-06
2.56194e-06
2.98081e-06
3.41721e-06
3.87038e-06
4.33944e-06
4.82349e-06
5.32164e-06
5.83304e-06
6.35764e-06
6.895e-06
7.44267e-06
7.99981e-06
8.56554e-06
9.13899e-06
9.71928e-06
1.03055e-05
1.08972e-05
1.14925e-05
1.20903e-05
1.26898e-05
1.32897e-05
1.38892e-05
1.44871e-05
1.50822e-05
1.56736e-05
1.626e-05
1.68372e-05
1.7349e-05
1.79129e-05
1.84673e-05
1.90113e-05
1.95439e-05
2.00641e-05
2.05708e-05
2.10627e-05
2.1539e-05
2.20417e-05
2.27866e-05
2.32896e-05
2.37486e-05
2.41745e-05
2.45506e-05
2.48942e-05
2.51965e-05
2.54565e-05
2.56752e-05
2.58537e-05
2.59919e-05
2.60559e-05
2.60874e-05
2.59119e-05
2.55667e-05
2.55839e-05
2.55671e-05
2.55232e-05
2.54479e-05
2.53293e-05
2.51852e-05
2.50095e-05
2.48523e-05
2.4663e-05
2.43717e-05
2.40457e-05
2.36998e-05
2.32999e-05
2.28836e-05
2.24249e-05
2.19373e-05
2.14214e-05
2.08643e-05
2.02914e-05
1.96672e-05
1.90338e-05
1.83498e-05
1.76537e-05
1.69173e-05
1.61618e-05
1.53761e-05
1.45655e-05
1.37347e-05
1.28742e-05
1.20036e-05
1.10998e-05
1.01879e-05
9.72259e-06
9.25725e-06
8.7884e-06
8.31322e-06
7.83803e-06
7.36052e-06
6.87818e-06
6.39585e-06
5.91016e-06
5.42162e-06
4.93278e-06
4.43627e-06
3.93975e-06
3.43224e-06
2.92264e-06
2.39293e-06
1.8488e-06
1.27909e-06
9.83107e-07
6.7095e-07
3.4507e-07
0
)


113
(
0
4.91774e-07
9.44758e-07
1.37555e-06
1.79568e-06
2.21061e-06
2.62414e-06
3.03883e-06
3.45622e-06
3.87712e-06
4.30184e-06
4.7304e-06
5.16262e-06
5.59823e-06
6.03684e-06
6.47817e-06
6.92171e-06
7.36662e-06
7.81239e-06
8.25851e-06
8.70446e-06
9.14973e-06
9.59378e-06
9.9327e-06
1.03471e-05
1.077e-05
1.11883e-05
1.16014e-05
1.20087e-05
1.24097e-05
1.28036e-05
1.319e-05
1.35683e-05
1.39379e-05
1.42983e-05
1.46486e-05
1.49887e-05
1.53179e-05
1.56359e-05
1.59421e-05
1.6236e-05
1.65168e-05
1.67842e-05
1.70379e-05
1.72774e-05
1.75024e-05
1.77125e-05
1.79073e-05
1.80853e-05
1.82464e-05
1.83908e-05
1.85182e-05
1.86286e-05
1.87219e-05
1.87982e-05
1.88524e-05
1.88876e-05
1.89054e-05
1.89061e-05
1.88834e-05
1.88398e-05
1.87793e-05
1.86994e-05
1.85926e-05
1.847e-05
1.83277e-05
1.81575e-05
1.79733e-05
1.77636e-05
1.75314e-05
1.72863e-05
1.7006e-05
1.67149e-05
1.63959e-05
1.60578e-05
1.57008e-05
1.53162e-05
1.49209e-05
1.45566e-05
1.41862e-05
1.37026e-05
1.3211e-05
1.26926e-05
1.21614e-05
1.16097e-05
1.10404e-05
1.04569e-05
9.85132e-06
9.23829e-06
8.59792e-06
7.9496e-06
7.61621e-06
7.28282e-06
6.94482e-06
6.59848e-06
6.25214e-06
5.90131e-06
5.54121e-06
5.18111e-06
4.81251e-06
4.43668e-06
4.06014e-06
3.66548e-06
3.27083e-06
2.85695e-06
2.43953e-06
1.99641e-06
1.53903e-06
1.05854e-06
8.0935e-07
5.48897e-07
2.79925e-07
0
)


113
(
0
4.67625e-07
9.03646e-07
1.31443e-06
1.70734e-06
2.08548e-06
2.45136e-06
2.80717e-06
3.15466e-06
3.49518e-06
3.8297e-06
4.15895e-06
4.48344e-06
4.80351e-06
5.11942e-06
5.43101e-06
5.73813e-06
6.04126e-06
6.34034e-06
6.63527e-06
6.92591e-06
7.21211e-06
7.49368e-06
7.76963e-06
8.04054e-06
8.30617e-06
8.56629e-06
8.82067e-06
9.06907e-06
9.31125e-06
9.54696e-06
9.77597e-06
9.99801e-06
1.02129e-05
1.04203e-05
1.06199e-05
1.08116e-05
1.09952e-05
1.11707e-05
1.13377e-05
1.14961e-05
1.16453e-05
1.17855e-05
1.19164e-05
1.20379e-05
1.215e-05
1.22523e-05
1.23449e-05
1.24269e-05
1.24982e-05
1.25593e-05
1.26098e-05
1.265e-05
1.26798e-05
1.26994e-05
1.27057e-05
1.27008e-05
1.26856e-05
1.26603e-05
1.26214e-05
1.25704e-05
1.25096e-05
1.24375e-05
1.23501e-05
1.22536e-05
1.21459e-05
1.20224e-05
1.18909e-05
1.1745e-05
1.15864e-05
1.14206e-05
1.1235e-05
1.10433e-05
1.08359e-05
1.06178e-05
1.03891e-05
1.01448e-05
9.89437e-06
9.62409e-06
9.35014e-06
9.05584e-06
8.75643e-06
8.44e-06
8.11499e-06
7.77632e-06
7.42521e-06
7.06408e-06
6.68574e-06
6.30167e-06
5.89403e-06
5.47878e-06
5.26227e-06
5.04577e-06
4.82442e-06
4.59433e-06
4.36424e-06
4.12931e-06
3.88435e-06
3.63939e-06
3.38561e-06
3.12432e-06
2.86236e-06
2.58334e-06
2.30433e-06
2.00941e-06
1.71159e-06
1.39521e-06
1.06977e-06
7.30291e-07
5.55476e-07
3.74781e-07
1.89933e-07
0
)


113
(
0
3.04847e-07
5.94711e-07
8.70506e-07
1.13481e-06
1.38831e-06
1.63166e-06
1.8656e-06
2.0909e-06
2.30823e-06
2.51819e-06
2.72128e-06
2.91792e-06
3.10845e-06
3.29319e-06
3.47197e-06
3.64478e-06
3.81248e-06
3.97521e-06
4.13309e-06
4.28623e-06
4.43469e-06
4.57854e-06
4.71714e-06
4.85131e-06
4.98106e-06
5.10641e-06
5.22738e-06
5.34397e-06
5.45618e-06
5.564e-06
5.66744e-06
5.76646e-06
5.86107e-06
5.95124e-06
6.03685e-06
6.11799e-06
6.19468e-06
6.26689e-06
6.3346e-06
6.3978e-06
6.4563e-06
6.51016e-06
6.55941e-06
6.60404e-06
6.64403e-06
6.67936e-06
6.71003e-06
6.73567e-06
6.75633e-06
6.77223e-06
6.7833e-06
6.7896e-06
6.79121e-06
6.7882e-06
6.77924e-06
6.76525e-06
6.74667e-06
6.72365e-06
6.69458e-06
6.66012e-06
6.62138e-06
6.57768e-06
6.52719e-06
6.47269e-06
6.41323e-06
6.34673e-06
6.27666e-06
6.20015e-06
6.11791e-06
6.03235e-06
5.93769e-06
5.84019e-06
5.73533e-06
5.62528e-06
5.51013e-06
5.3872e-06
5.26127e-06
5.12507e-06
4.98694e-06
4.83784e-06
4.68585e-06
4.52426e-06
4.35757e-06
4.1828e-06
4.0003e-06
3.81158e-06
3.6118e-06
3.40833e-06
3.18938e-06
2.96543e-06
2.84764e-06
2.72985e-06
2.60898e-06
2.48253e-06
2.35609e-06
2.22672e-06
2.09131e-06
1.9559e-06
1.81557e-06
1.67105e-06
1.52619e-06
1.37266e-06
1.21913e-06
1.05829e-06
8.96117e-07
7.26213e-07
5.52858e-07
3.74306e-07
2.83245e-07
1.90228e-07
9.58943e-08
0
)


113
(
0
2.95724e-08
5.84309e-08
8.65473e-08
1.14001e-07
1.40779e-07
1.66871e-07
1.92277e-07
2.17006e-07
2.41071e-07
2.64484e-07
2.87256e-07
3.09398e-07
3.30919e-07
3.51826e-07
3.72081e-07
3.91655e-07
4.10631e-07
4.29013e-07
4.46805e-07
4.64008e-07
4.80626e-07
4.96658e-07
5.12019e-07
5.26807e-07
5.41024e-07
5.54671e-07
5.67749e-07
5.80259e-07
5.92203e-07
6.03582e-07
6.14398e-07
6.24651e-07
6.34344e-07
6.43477e-07
6.5204e-07
6.60047e-07
6.67505e-07
6.74416e-07
6.80781e-07
6.86602e-07
6.91862e-07
6.96573e-07
7.00741e-07
7.0437e-07
7.07461e-07
7.10017e-07
7.1204e-07
7.13493e-07
7.14384e-07
7.14741e-07
7.14562e-07
7.13855e-07
7.12629e-07
7.10897e-07
7.08514e-07
7.05587e-07
7.02162e-07
6.98258e-07
6.93704e-07
6.88574e-07
6.82986e-07
6.76871e-07
6.70035e-07
6.62777e-07
6.54995e-07
6.46475e-07
6.37581e-07
6.28014e-07
6.17854e-07
6.07349e-07
5.95907e-07
5.84176e-07
5.71695e-07
5.58693e-07
5.45176e-07
5.3089e-07
5.16307e-07
5.00728e-07
4.84965e-07
4.68166e-07
4.51105e-07
4.33166e-07
4.14783e-07
3.95691e-07
3.75958e-07
3.55708e-07
3.34592e-07
3.13188e-07
2.90655e-07
2.67786e-07
2.55959e-07
2.44133e-07
2.32117e-07
2.19757e-07
2.07397e-07
1.94874e-07
1.8201e-07
1.69147e-07
1.56033e-07
1.42705e-07
1.29362e-07
1.15616e-07
1.0187e-07
8.78139e-08
7.37017e-08
5.92874e-08
4.47474e-08
3.0022e-08
2.25979e-08
1.51095e-08
7.57906e-09
0
)

)


10
(

113
(
0
7.38876e-13
1.75615e-12
2.89553e-12
4.10541e-12
5.36925e-12
6.6776e-12
8.02509e-12
9.41676e-12
1.0871e-11
1.24667e-11
1.43e-11
1.65e-11
1.92692e-11
2.29615e-11
2.91667e-11
3.915e-11
5.48e-11
7.81417e-11
1.22558e-10
2.03154e-10
3.54e-10
6.44e-10
1.17308e-09
2.08846e-09
4.25e-09
8.76667e-09
1.79167e-08
3.5875e-08
6.965e-08
1.3815e-07
2.94727e-07
5.86667e-07
1.108e-06
2.03818e-06
3.69455e-06
6.37091e-06
1.04091e-05
1.61e-05
2.35545e-05
3.23182e-05
4.21e-05
5.08636e-05
5.872e-05
6.47545e-05
6.90273e-05
7.18909e-05
7.35667e-05
7.43167e-05
7.44e-05
7.40154e-05
7.32583e-05
7.22231e-05
7.10286e-05
6.96714e-05
6.82e-05
6.66429e-05
6.5e-05
6.34e-05
6.17563e-05
6.00687e-05
5.83812e-05
5.6675e-05
5.4925e-05
5.32059e-05
5.15e-05
4.98889e-05
4.82556e-05
4.65333e-05
4.48333e-05
4.31667e-05
4.15211e-05
3.98895e-05
3.82211e-05
3.65368e-05
3.492e-05
3.332e-05
3.176e-05
3.021e-05
2.862e-05
2.702e-05
2.546e-05
2.391e-05
2.23368e-05
2.07579e-05
1.9295e-05
1.7845e-05
1.63e-05
1.475e-05
1.325e-05
1.17782e-05
1.10753e-05
1.03724e-05
9.67375e-06
8.9925e-06
8.31125e-06
7.63e-06
6.99333e-06
6.35667e-06
5.72e-06
5.04917e-06
4.37833e-06
3.75818e-06
3.17182e-06
2.60222e-06
2.05778e-06
1.53571e-06
1.0505e-06
6.53e-07
4.68e-07
2.705e-07
1.13425e-07
0
)


113
(
0
8.49677e-13
1.88613e-12
3.0294e-12
4.25973e-12
5.59176e-12
7.09189e-12
8.93588e-12
1.1587e-11
1.62509e-11
2.56746e-11
4.64544e-11
9.07417e-11
1.82631e-10
3.97575e-10
8.82258e-10
1.89442e-09
3.92545e-09
7.40867e-09
1.43472e-08
2.82578e-08
5.20338e-08
9.21859e-08
1.57376e-07
2.60823e-07
4.32949e-07
6.94443e-07
1.07435e-06
1.60764e-06
2.33508e-06
3.33993e-06
4.67727e-06
6.40232e-06
8.52475e-06
1.10645e-05
1.40713e-05
1.75235e-05
2.1388e-05
2.56046e-05
3.01114e-05
3.47655e-05
3.94429e-05
4.40244e-05
4.84026e-05
5.24365e-05
5.60638e-05
5.92269e-05
6.18711e-05
6.4011e-05
6.563e-05
6.66152e-05
6.72024e-05
6.7373e-05
6.72095e-05
6.66936e-05
6.58968e-05
6.49231e-05
6.37896e-05
6.24608e-05
6.10616e-05
5.95918e-05
5.80388e-05
5.64604e-05
5.48441e-05
5.32063e-05
5.15592e-05
4.98989e-05
4.82382e-05
4.65759e-05
4.49159e-05
4.32593e-05
4.16093e-05
3.99636e-05
3.83279e-05
3.66965e-05
3.50786e-05
3.3464e-05
3.18642e-05
3.0268e-05
2.86866e-05
2.71087e-05
2.55456e-05
2.39862e-05
2.24416e-05
2.09008e-05
1.93788e-05
1.78589e-05
1.63619e-05
1.48707e-05
1.34094e-05
1.19606e-05
1.12507e-05
1.05409e-05
9.83583e-06
9.14996e-06
8.46409e-06
7.77822e-06
7.11972e-06
6.46123e-06
5.80274e-06
5.17495e-06
4.54716e-06
3.9413e-06
3.35007e-06
2.77624e-06
2.22853e-06