/*--------------------------------*- C++ -*----------------------------------*\
| =========                 |                                                 |
| \\      /  F ield         | OpenFOAM: The Open Source CFD Toolbox           |
|  \\    /   O peration     | Version:  2.3.0                                 |
|   \\  /    A nd           | Web:      www.OpenFOAM.org                      |
|    \\/     M anipulation  |                                                 |
\*---------------------------------------------------------------------------*/
FoamFile
{
    version     2.0;
    format      ascii;
    class       dictionary;
    location    "constant";
    object      HNCO;
}
// * * * * * * * * * * * * * * * * * * * * * * * * * * * * * * * * * * * * * //

HNCO_table
13
(

10
(

113
(
0
2.87542e-15
6.77482e-15
1.12488e-14
1.61009e-14
2.13452e-14
2.69802e-14
3.32518e-14
4.0209e-14
4.78768e-14
5.75457e-14
6.94462e-14
8.31e-14
1.0505e-13
1.34807e-13
1.75801e-13
2.50748e-13
3.50787e-13
5.31884e-13
8.26074e-13
1.22055e-12
2.00085e-12
3.04654e-12
4.72556e-12
7.45148e-12
1.08317e-11
1.74155e-11
2.79466e-11
4.41578e-11
1.03551e-10
2.5455e-10
7.0955e-10
2.76035e-09
6.11e-09
2.311e-08
6.33354e-08
1.34348e-07
3.32753e-07
6.41987e-07
1.19009e-06
2.09395e-06
3.19547e-06
4.57435e-06
5.82108e-06
6.94084e-06
7.64925e-06
8.2352e-06
8.46425e-06
8.61481e-06
8.59859e-06
8.52968e-06
8.40134e-06
8.25312e-06
8.09167e-06
7.94335e-06
7.80122e-06
7.69322e-06
7.59916e-06
7.53667e-06
7.48836e-06
7.4641e-06
7.45457e-06
7.45e-06
7.45e-06
7.44648e-06
7.43722e-06
7.4189e-06
7.36844e-06
7.31582e-06
7.21127e-06
7.10673e-06
6.95317e-06
6.79027e-06
6.58811e-06
6.36288e-06
6.12201e-06
5.85862e-06
5.59111e-06
5.3035e-06
5.01588e-06
4.72943e-06
4.44308e-06
4.15593e-06
3.86832e-06
3.58605e-06
3.31251e-06
3.04009e-06
2.77404e-06
2.50798e-06
2.24938e-06
1.991e-06
1.86888e-06
1.74898e-06
1.62908e-06
1.50918e-06
1.39326e-06
1.27809e-06
1.16292e-06
1.04996e-06
9.42684e-07
8.35405e-07
7.29179e-07
6.30672e-07
5.32164e-07
4.37685e-07
3.48333e-07
2.61704e-07
1.82074e-07
1.09271e-07
7.5e-08
4.5e-08
1.88048e-08
0
)


113
(
0
3.32866e-15
7.44563e-15
1.21464e-14
1.74723e-14
2.35729e-14
3.08933e-14
4.11015e-14
5.65702e-14
7.91192e-14
1.35599e-13
2.88168e-13
5.16237e-13
1.61885e-12
4.39293e-12
9.57228e-12
2.74607e-11
5.90357e-11
1.4192e-10
3.3875e-10
6.36625e-10
1.49559e-09
2.83641e-09
5.3712e-09
1.03311e-08
1.68171e-08
3.12405e-08
5.19332e-08
8.16476e-08
1.32421e-07
1.97222e-07
2.94988e-07
4.28953e-07
5.87587e-07
8.20906e-07
1.09228e-06
1.41411e-06
1.81214e-06
2.24485e-06
2.73497e-06
3.26149e-06
3.80636e-06
4.36575e-06
4.91203e-06
5.44569e-06
5.92182e-06
6.37605e-06
6.74185e-06
7.07037e-06
7.31965e-06
7.51664e-06
7.65465e-06
7.74034e-06
7.79113e-06
7.80182e-06
7.79363e-06
7.76366e-06
7.72479e-06
7.67839e-06
7.62859e-06
7.57769e-06
7.52611e-06
7.47333e-06
7.41945e-06
7.36156e-06
7.29712e-06
7.22792e-06
7.14179e-06
7.05439e-06
6.9366e-06
6.81882e-06
6.6691e-06
6.5133e-06
6.33342e-06
6.1394e-06
5.93145e-06
5.70346e-06
5.47117e-06
5.21793e-06
4.96468e-06
4.69786e-06
4.4297e-06
4.15799e-06
3.88429e-06
3.61135e-06
3.33963e-06
3.06893e-06
2.80406e-06
2.53919e-06
2.28387e-06
2.02885e-06
1.90585e-06
1.78426e-06
1.66268e-06
1.5411e-06
1.42511e-06
1.31018e-06
1.19526e-06
1.08239e-06
9.74815e-07
8.67242e-07
7.60638e-07
6.61148e-07
5.61658e-07
4.65994e-07
3.752e-07
2.86879e-07
2.04915e-07
1.28362e-07
9.17968e-08
5.88802e-08
2.83036e-08
0
)


113
(
0
1.35177e-11
4.60954e-11
1.17498e-10
2.50841e-10
4.7762e-10
8.53942e-10
1.55834e-09
2.60342e-09
3.99305e-09
6.27951e-09
9.54628e-09
1.35833e-08
2.02928e-08
2.85734e-08
3.9115e-08
5.4317e-08
7.20475e-08
9.64348e-08
1.26204e-07
1.60746e-07
2.07029e-07
2.59405e-07
3.25414e-07
4.02828e-07
4.87077e-07
5.91875e-07
7.07396e-07
8.38347e-07
9.88134e-07
1.14821e-06
1.32925e-06
1.52593e-06
1.73308e-06
1.96306e-06
2.20158e-06
2.45142e-06
2.71599e-06
2.98585e-06
3.26301e-06
3.54429e-06
3.82733e-06
4.10963e-06
4.388e-06
4.6626e-06
4.92505e-06
5.183e-06
5.42328e-06
5.65485e-06
5.86794e-06
6.06527e-06
6.24485e-06
6.40305e-06
6.54699e-06
6.66499e-06
6.77079e-06
6.85105e-06
6.92088e-06
6.96457e-06
6.99652e-06
7.0062e-06
7.00223e-06
6.98202e-06
6.94683e-06
6.89971e-06
6.83315e-06
6.76036e-06
6.66554e-06
6.56962e-06
6.44764e-06
6.32566e-06
6.18317e-06
6.03676e-06
5.87551e-06
5.70554e-06
5.52676e-06
5.33528e-06
5.14062e-06
4.93044e-06
4.72026e-06
4.49582e-06
4.26997e-06
4.03702e-06
3.80006e-06
3.5605e-06
3.31666e-06
3.07247e-06
2.82626e-06
2.58005e-06
2.3369e-06
2.09383e-06
1.97443e-06
1.85571e-06
1.73698e-06
1.61826e-06
1.50329e-06
1.38905e-06
1.2748e-06
1.16168e-06
1.05146e-06
9.41236e-07
8.31933e-07
7.29354e-07
6.26775e-07
5.27066e-07
4.31009e-07
3.3681e-07
2.4739e-07
1.6243e-07
1.21289e-07
8.23322e-08
4.32363e-08
0
)


113
(
0
3.0445e-09
6.94269e-09
1.23104e-08
1.93145e-08
2.81484e-08
3.92374e-08
5.33794e-08
7.01524e-08
8.93781e-08
1.13551e-07
1.41293e-07
1.71839e-07
2.10817e-07
2.52514e-07
2.98125e-07
3.52734e-07
4.11362e-07
4.78627e-07
5.51177e-07
6.28416e-07
7.14924e-07
8.06026e-07
9.07271e-07
1.01532e-06
1.1274e-06
1.249e-06
1.37702e-06
1.51429e-06
1.65592e-06
1.80135e-06
1.95705e-06
2.11538e-06
2.27556e-06
2.44388e-06
2.61426e-06
2.78737e-06
2.96317e-06
3.13982e-06
3.31753e-06
3.49441e-06
3.67063e-06
3.84484e-06
4.01656e-06
4.18589e-06
4.34882e-06
4.50951e-06
4.6619e-06
4.81054e-06
4.95118e-06
5.08417e-06
5.20853e-06
5.32164e-06
5.42725e-06
5.52123e-06
5.60973e-06
5.68351e-06
5.75127e-06
5.80047e-06
5.84134e-06
5.86863e-06
5.88759e-06
5.89293e-06
5.88569e-06
5.86889e-06
5.83651e-06
5.79849e-06
5.74048e-06
5.68152e-06
5.59969e-06
5.51785e-06
5.41715e-06
5.31286e-06
5.19384e-06
5.06618e-06
4.93033e-06
4.78267e-06
4.63218e-06
4.46782e-06
4.30346e-06
4.12309e-06
3.94114e-06
3.75227e-06
3.55951e-06
3.36073e-06
3.15214e-06
2.94233e-06
2.72564e-06
2.50896e-06
2.29177e-06
2.07457e-06
1.96559e-06
1.8565e-06
1.74741e-06
1.63832e-06
1.52998e-06
1.42179e-06
1.31359e-06
1.20598e-06
1.09988e-06
9.9378e-07
8.88071e-07
7.85237e-07
6.82404e-07
5.81506e-07
4.83071e-07
3.85875e-07
2.91864e-07
1.99028e-07
1.52797e-07
1.05239e-07
5.54248e-08
0
)


113
(
0
2.112e-08
4.25068e-08
6.6328e-08
9.31108e-08
1.23072e-07
1.56654e-07
1.94531e-07
2.35696e-07
2.79803e-07
3.29195e-07
3.81945e-07
4.37334e-07
4.98946e-07
5.63157e-07
6.3111e-07
7.0416e-07
7.79556e-07
8.60186e-07
9.44047e-07
1.03078e-06
1.12273e-06
1.21668e-06
1.31464e-06
1.41793e-06
1.52429e-06
1.63495e-06
1.74556e-06
1.85611e-06
1.97162e-06
2.08841e-06
2.20532e-06
2.32339e-06
2.44225e-06
2.56304e-06
2.6822e-06
2.79919e-06
2.91901e-06
3.038e-06
3.15338e-06
3.26786e-06
3.38154e-06
3.49242e-06
3.60075e-06
3.70662e-06
3.80813e-06
3.90807e-06
4.00205e-06
4.09379e-06
4.18078e-06
4.2628e-06
4.33921e-06
4.40942e-06
4.47549e-06
4.53497e-06
4.59134e-06
4.63583e-06
4.67547e-06
4.70772e-06
4.73663e-06
4.75546e-06
4.7681e-06
4.77198e-06
4.76776e-06
4.75759e-06
4.7377e-06
4.71451e-06
4.67958e-06
4.64385e-06
4.58902e-06
4.53419e-06
4.46337e-06
4.3895e-06
4.3032e-06
4.2096e-06
4.10962e-06
4.00048e-06
3.88929e-06
3.76812e-06
3.64695e-06
3.51238e-06
3.37648e-06
3.23196e-06
3.08258e-06
2.92868e-06
2.76737e-06
2.60455e-06
2.4331e-06
2.26166e-06
2.08236e-06
1.90283e-06
1.81086e-06
1.71821e-06
1.62556e-06
1.5329e-06
1.43894e-06
1.34474e-06
1.25053e-06
1.15628e-06
1.06192e-06
9.67563e-07
8.73316e-07
7.79873e-07
6.8643e-07
5.93333e-07
5.00678e-07
4.07693e-07
3.13859e-07
2.17107e-07
1.67699e-07
1.15065e-07
5.9885e-08
0
)


113
(
0
4.84393e-08
9.38726e-08
1.39213e-07
1.85811e-07
2.34226e-07
2.84974e-07
3.38608e-07
3.94418e-07
4.52157e-07
5.13197e-07
5.76183e-07
6.40699e-07
7.08527e-07
7.77622e-07
8.48538e-07
9.21721e-07
9.95905e-07
1.07221e-06
1.1497e-06
1.22823e-06
1.30849e-06
1.38934e-06
1.47134e-06
1.55411e-06
1.63733e-06
1.72136e-06
1.80559e-06
1.89008e-06
1.97465e-06
2.05917e-06
2.14346e-06
2.22735e-06
2.31081e-06
2.38666e-06
2.46472e-06
2.54571e-06
2.62519e-06
2.70382e-06
2.78087e-06
2.8562e-06
2.93041e-06
3.00209e-06
3.08807e-06
3.18781e-06
3.26505e-06
3.33723e-06
3.40318e-06
3.46553e-06
3.52023e-06
3.57021e-06
3.61488e-06
3.65267e-06
3.68587e-06
3.71307e-06
3.73743e-06
3.72096e-06
3.68782e-06
3.6856e-06
3.69726e-06
3.70296e-06
3.705e-06
3.70176e-06
3.69364e-06
3.68148e-06
3.66273e-06
3.64327e-06
3.62132e-06
3.59857e-06
3.55646e-06
3.51434e-06
3.46277e-06
3.40938e-06
3.34883e-06
3.28405e-06
3.21459e-06
3.13838e-06
3.06022e-06
2.97261e-06
2.88499e-06
2.78716e-06
2.68832e-06
2.58255e-06
2.47289e-06
2.35937e-06
2.23956e-06
2.11838e-06
1.98939e-06
1.86041e-06
1.72381e-06
1.58698e-06
1.5162e-06
1.44467e-06
1.37315e-06
1.30162e-06
1.22814e-06
1.1543e-06
1.08045e-06
1.00609e-06
9.30386e-07
8.54682e-07
7.78724e-07
7.009e-07
6.23077e-07
5.43801e-07
4.62675e-07
3.80119e-07
2.93882e-07
2.03272e-07
1.56568e-07
1.06723e-07
5.494e-08
0
)


113
(
0
6.68478e-08
1.28709e-07
1.8766e-07
2.4526e-07
3.02253e-07
3.59132e-07
4.16374e-07
4.74062e-07
5.32187e-07
5.91206e-07
6.50789e-07
7.10817e-07
7.71797e-07
8.33116e-07
8.94922e-07
9.57251e-07
1.01979e-06
1.08271e-06
1.14577e-06
1.20895e-06
1.27218e-06
1.33277e-06
1.38582e-06
1.44391e-06
1.50481e-06
1.56491e-06
1.62458e-06
1.68365e-06
1.74173e-06
1.79925e-06
1.85564e-06
1.91102e-06
1.96572e-06
2.01862e-06
2.07063e-06
2.12149e-06
2.17045e-06
2.21843e-06
2.26464e-06
2.30906e-06
2.35234e-06
2.39314e-06
2.43236e-06
2.47007e-06
2.50492e-06
2.53881e-06
2.56936e-06
2.59861e-06
2.62508e-06
2.64947e-06
2.67153e-06
2.69076e-06
2.70811e-06
2.72201e-06
2.73429e-06
2.74273e-06
2.7496e-06
2.75248e-06
2.75358e-06
2.75089e-06
2.74588e-06
2.73754e-06
2.72613e-06
2.71218e-06
2.69409e-06
2.67448e-06
2.64948e-06
2.6242e-06
2.59209e-06
2.55998e-06
2.52177e-06
2.4824e-06
2.43839e-06
2.39165e-06
2.34187e-06
2.28771e-06
2.23378e-06
2.18103e-06
2.12829e-06
2.05911e-06
1.9883e-06
1.91312e-06
1.83547e-06
1.75533e-06
1.67113e-06
1.58599e-06
1.4956e-06
1.40521e-06
1.3092e-06
1.21303e-06
1.16284e-06
1.11199e-06
1.06115e-06
1.0103e-06
9.57099e-07
9.03451e-07
8.49803e-07
7.95274e-07
7.3848e-07
6.81687e-07
6.24434e-07
5.63813e-07
5.03192e-07
4.40505e-07
3.7519e-07
3.08369e-07
2.37678e-07
1.63412e-07
1.25173e-07
8.48045e-08
4.32812e-08
0
)


113
(
0
6.57411e-08
1.27226e-07
1.85252e-07
2.40816e-07
2.94428e-07
3.46324e-07
3.96705e-07
4.46163e-07
4.94858e-07
5.42456e-07
5.89488e-07
6.36075e-07
6.81756e-07
7.27089e-07
7.7192e-07
8.16079e-07
8.59924e-07
9.0305e-07
9.45696e-07
9.87916e-07
1.02926e-06
1.07024e-06
1.11046e-06
1.14995e-06
1.18902e-06
1.22692e-06
1.26429e-06
1.30091e-06
1.33643e-06
1.37138e-06
1.40518e-06
1.43804e-06
1.47027e-06
1.50091e-06
1.53082e-06
1.55976e-06
1.58719e-06
1.61385e-06
1.63915e-06
1.66312e-06
1.68625e-06
1.7076e-06
1.72784e-06
1.74702e-06
1.76424e-06
1.78081e-06
1.79517e-06
1.80867e-06
1.82036e-06
1.83072e-06
1.8396e-06
1.84671e-06
1.85263e-06
1.85644e-06
1.85925e-06
1.85974e-06
1.85928e-06
1.85644e-06
1.85254e-06
1.84642e-06
1.83893e-06
1.82952e-06
1.81832e-06
1.80567e-06
1.79065e-06
1.77476e-06
1.75583e-06
1.73673e-06
1.7138e-06
1.69087e-06
1.66455e-06
1.63757e-06
1.60803e-06
1.57697e-06
1.54423e-06
1.50906e-06
1.47318e-06
1.43385e-06
1.39452e-06
1.35137e-06
1.30785e-06
1.26161e-06
1.21385e-06
1.16446e-06
1.11241e-06
1.0597e-06
1.00325e-06
9.46787e-07
8.85837e-07
8.24747e-07
7.92306e-07
7.59267e-07
7.26227e-07
6.93187e-07
6.57838e-07
6.22049e-07
5.8626e-07
5.4961e-07
5.10747e-07
4.71884e-07
4.32612e-07
3.90342e-07
3.48072e-07
3.04212e-07
2.5833e-07
2.11458e-07
1.62039e-07
1.10576e-07
8.42237e-08
5.67804e-08
2.87904e-08
0
)


113
(
0
4.40539e-08
8.60108e-08
1.25972e-07
1.64282e-07
2.01108e-07
2.36455e-07
2.70275e-07
3.03047e-07
3.34914e-07
3.65321e-07
3.94898e-07
4.23823e-07
4.5135e-07
4.78337e-07
5.04547e-07
5.29755e-07
5.5451e-07
5.78271e-07
6.01426e-07
6.24041e-07
6.4566e-07
6.66889e-07
6.87323e-07
7.07085e-07
7.26449e-07
7.44802e-07
7.62737e-07
7.80069e-07
7.96592e-07
8.12701e-07
8.28014e-07
8.4271e-07
8.56991e-07
8.70278e-07
8.83128e-07
8.95398e-07
9.06798e-07
9.17765e-07
9.27978e-07
9.37474e-07
9.46518e-07
9.54629e-07
9.62173e-07
9.69175e-07
9.752e-07
9.80905e-07
9.85524e-07
9.89734e-07
9.93076e-07
9.95796e-07
9.97815e-07
9.99014e-07
9.99667e-07
9.99353e-07
9.98585e-07
9.96767e-07
9.9452e-07
9.91214e-07
9.87431e-07
9.82663e-07
9.77291e-07
9.71065e-07
9.64052e-07
9.56396e-07
9.47691e-07
9.38603e-07
9.2816e-07
9.17644e-07
9.0541e-07
8.93175e-07
8.79389e-07
8.65307e-07
8.50024e-07
8.34034e-07
8.1723e-07
7.99253e-07
7.80921e-07
7.60854e-07
7.40787e-07
7.18705e-07
6.96424e-07
6.72633e-07
6.47992e-07
6.22393e-07
5.95229e-07
5.67658e-07
5.37777e-07
5.07896e-07
4.75175e-07
4.42366e-07
4.24771e-07
4.06799e-07
3.88827e-07
3.70855e-07
3.51497e-07
3.31875e-07
3.12252e-07
2.92153e-07
2.70831e-07
2.49508e-07
2.27982e-07
2.04969e-07
1.81955e-07
1.58242e-07
1.33639e-07
1.08648e-07
8.26593e-08
5.59473e-08
4.23739e-08
2.84431e-08
1.43425e-08
0
)


113
(
0
4.36977e-09
8.63592e-09
1.27933e-08
1.6852e-08
2.0815e-08
2.46752e-08
2.84189e-08
3.20763e-08
3.56573e-08
3.91051e-08
4.24708e-08
4.57721e-08
4.89252e-08
5.20175e-08
5.50221e-08
5.79081e-08
6.07393e-08
6.34478e-08
6.60789e-08
6.86414e-08
7.1074e-08
7.34551e-08
7.57309e-08
7.79171e-08
8.00502e-08
8.20477e-08
8.39892e-08
8.58501e-08
8.76032e-08
8.93015e-08
9.08944e-08
9.24067e-08
9.38647e-08
9.51942e-08
9.64678e-08
9.76674e-08
9.87574e-08
9.97934e-08
1.00736e-07
1.0159e-07
1.02389e-07
1.03076e-07
1.03695e-07
1.0425e-07
1.04689e-07
1.05092e-07
1.05368e-07
1.05598e-07
1.05729e-07
1.0579e-07
1.05771e-07
1.05661e-07
1.05491e-07
1.05214e-07
1.04886e-07
1.04445e-07
1.03956e-07
1.03354e-07
1.02699e-07
1.0194e-07
1.01116e-07
1.00201e-07
9.92031e-08
9.81374e-08
9.69615e-08
9.57458e-08
9.43888e-08
9.30244e-08
9.14828e-08
8.99412e-08
8.82416e-08
8.6512e-08
8.46618e-08
8.27408e-08
8.07398e-08
7.86234e-08
7.64731e-08
7.41566e-08
7.18401e-08
6.93372e-08
6.68158e-08
6.4161e-08
6.1431e-08
5.86209e-08
5.56802e-08
5.27077e-08
4.95558e-08
4.64038e-08
4.30493e-08
3.96885e-08
3.79313e-08
3.61498e-08
3.43683e-08
3.25868e-08
3.07252e-08
2.88484e-08
2.69715e-08
2.50703e-08
2.31061e-08
2.1142e-08
1.91686e-08
1.71272e-08
1.50858e-08
1.30158e-08
1.09094e-08
8.78855e-09
6.63067e-09
4.44793e-09
3.34914e-09
2.23877e-09
1.12309e-09
0
)

)


10
(

113
(
0
1.08592e-14
2.59923e-14
4.33716e-14
6.22498e-14
8.24276e-14
1.03844e-13
1.26573e-13
1.50837e-13
1.77114e-13
2.06285e-13
2.39914e-13
2.80752e-13
3.33287e-13
4.04382e-13
5.08403e-13
6.7531e-13
9.40065e-13
1.36856e-12
2.07583e-12
3.27073e-12
5.34308e-12
9.03442e-12
1.71367e-11
3.4783e-11
7.52325e-11
1.71089e-10
4.02286e-10
9.61954e-10
2.30409e-09
5.45729e-09
1.26584e-08
2.85564e-08
6.2079e-08
1.293e-07
2.58214e-07
4.86873e-07
8.65911e-07
1.46273e-06
2.34774e-06
3.55499e-06
5.02657e-06
6.59726e-06
8.10213e-06
9.44072e-06
1.0586e-05
1.15576e-05
1.23953e-05
1.31315e-05
1.38003e-05
1.44158e-05
1.49814e-05
1.54957e-05
1.59543e-05
1.63525e-05
1.66617e-05
1.68879e-05
1.70342e-05
1.71022e-05
1.70644e-05
1.6939e-05
1.67493e-05
1.64897e-05
1.61536e-05
1.57818e-05
1.53692e-05
1.49189e-05
1.4454e-05
1.39675e-05
1.34712e-05
1.29691e-05
1.24603e-05
1.1951e-05
1.1441e-05
1.09322e-05
1.04246e-05
9.92135e-06
9.41975e-06
8.92436e-06
8.43023e-06
7.94384e-06
7.45953e-06
6.98219e-06
6.5087e-06
6.04134e-06
5.57998e-06
5.12344e-06
4.67579e-06
4.2311e-06
3.79957e-06
3.37254e-06
3.16428e-06
2.95602e-06
2.75074e-06
2.55083e-06
2.35093e-06
2.15409e-06
1.96357e-06
1.77304e-06
1.58817e-06
1.40811e-06
1.2285e-06
1.06019e-06
8.91871e-07
7.34475e-07
5.79085e-07
4.37208e-07
3.02678e-07
1.80328e-07
1.2402e-07
7.43052e-08
3.10432e-08
0
)


113
(
0
1.26682e-14
2.84396e-14
4.63288e-14
6.60571e-14
8.80173e-14
1.13559e-13
1.46883e-13
1.99977e-13
3.06341e-13
5.67593e-13
1.25428e-12
3.02768e-12
7.35988e-12
1.71882e-11
3.99645e-11
9.71617e-11
2.2369e-10
4.87765e-10
1.01003e-09
1.99394e-09
3.76882e-09
6.86008e-09
1.26895e-08
2.25521e-08
3.86102e-08
6.38858e-08
1.02416e-07
1.59507e-07
2.41632e-07
3.56304e-07
5.12339e-07
7.19195e-07
9.86512e-07
1.3232e-06
1.7388e-06
2.23622e-06
2.81643e-06
3.47737e-06
4.21249e-06
5.0128e-06
5.86564e-06
6.75626e-06
7.66619e-06
8.57856e-06
9.47688e-06
1.03468e-05
1.1177e-05
1.19547e-05
1.267e-05
1.33204e-05
1.3902e-05
1.4414e-05
1.48568e-05
1.52314e-05
1.5519e-05
1.57349e-05
1.58867e-05
1.59777e-05
1.59888e-05
1.59334e-05
1.58277e-05
1.56659e-05
1.54362e-05
1.51712e-05
1.4864e-05
1.45083e-05
1.41315e-05
1.37204e-05
1.32875e-05
1.28418e-05
1.2373e-05
1.18997e-05
1.14154e-05
1.09275e-05
1.0436e-05
9.9437e-06
9.451e-06
8.96092e-06
8.47154e-06
7.98755e-06
7.50537e-06
7.02923e-06
6.55672e-06
6.08998e-06
5.62914e-06
5.17305e-06
4.72595e-06
4.28184e-06
3.85089e-06
3.42442e-06
3.21639e-06
3.00836e-06
2.80327e-06
2.60351e-06
2.40374e-06
2.20697e-06
2.0164e-06
1.82583e-06
1.64074e-06
1.46033e-06
1.28035e-06
1.11109e-06
9.41829e-07
7.82778e-07
6.256e-07
4.80913e-07
3.42073e-07
2.13224e-07
1.52922e-07
9.76533e-08
4.68811e-08
0
)


113
(
0
2.41372e-11
8.18618e-11
2.08309e-10
4.39604e-10
8.41545e-10
1.51752e-09
2.6097e-09
4.31214e-09
6.86515e-09
1.06159e-08
1.59298e-08
2.32796e-08
3.32878e-08
4.66708e-08
6.45015e-08
8.84742e-08
1.19134e-07
1.57712e-07
2.05617e-07
2.64388e-07
3.35688e-07
4.21504e-07
5.26646e-07
6.50655e-07
7.94802e-07
9.61131e-07
1.15161e-06
1.36786e-06
1.61134e-06
1.88331e-06
2.18417e-06
2.51467e-06
2.87425e-06
3.26225e-06
3.67792e-06
4.11922e-06
4.58454e-06
5.07153e-06
5.57616e-06
6.09603e-06
6.62778e-06
7.16569e-06
7.70793e-06
8.24819e-06
8.78387e-06
9.30773e-06
9.81741e-06
1.03094e-05
1.0777e-05
1.12181e-05
1.16286e-05
1.20065e-05
1.23506e-05
1.26591e-05
1.29194e-05
1.31374e-05
1.33166e-05
1.34583e-05
1.35487e-05
1.35938e-05
1.36035e-05
1.35727e-05
1.34894e-05
1.33768e-05
1.32285e-05
1.30342e-05
1.28183e-05
1.25648e-05
1.22824e-05
1.19832e-05
1.16453e-05
1.12974e-05
1.0924e-05
1.05367e-05
1.01358e-05
9.71944e-06
9.29704e-06
8.8611e-06
8.42313e-06
7.97674e-06
7.5295e-06
7.07944e-06
6.6296e-06
6.1801e-06
5.73312e-06
5.28815e-06
4.84889e-06
4.41154e-06
3.98494e-06
3.56245e-06
3.35601e-06
3.14958e-06
2.94556e-06
2.74593e-06
2.54629e-06
2.34886e-06
2.15599e-06
1.96311e-06
1.7742e-06
1.58867e-06
1.40356e-06
1.22918e-06
1.0548e-06
8.88258e-07
7.2315e-07
5.671e-07
4.15855e-07
2.72442e-07
2.03758e-07
1.38189e-07
7.27019e-08
0
)


113
(
0
5.04421e-09
1.15152e-08
2.04778e-08
3.2155e-08
4.70616e-08
6.57802e-08
8.89107e-08
1.17057e-07
1.50817e-07
1.9078e-07
2.37535e-07
2.91844e-07
3.54472e-07
4.25893e-07
5.07011e-07
5.99125e-07
7.0156e-07
8.14616e-07
9.39403e-07
1.07653e-06
1.22574e-06
1.38834e-06
1.56535e-06
1.75557e-06
1.95871e-06
2.17519e-06
2.40543e-06
2.64878e-06
2.90408e-06
3.1711e-06
3.44959e-06
3.73942e-06
4.0402e-06
4.34948e-06
4.66826e-06
4.99322e-06
5.32306e-06
5.65684e-06
5.99372e-06
6.33263e-06
6.67046e-06
7.00694e-06
7.33964e-06
7.66833e-06
7.98947e-06
8.30347e-06
8.60723e-06
8.89815e-06
9.17739e-06
9.44192e-06
9.68992e-06
9.92135e-06
1.01355e-05
1.03311e-05
1.05016e-05
1.06506e-05
1.07796e-05
1.08888e-05
1.09701e-05
1.10258e-05
1.1061e-05
1.10723e-05
1.1052e-05
1.10133e-05
1.09518e-05
1.08587e-05
1.075e-05
1.06135e-05
1.04538e-05
1.02806e-05
1.00731e-05
9.85563e-06
9.61275e-06
9.3541e-06
9.07994e-06
8.7848e-06
8.48153e-06
8.15742e-06
7.82943e-06
7.4798e-06
7.12676e-06
6.76236e-06
6.39172e-06
6.01115e-06
5.62334e-06
5.22973e-06
4.83001e-06
4.42826e-06
4.0329e-06
3.63828e-06
3.4418e-06
3.24532e-06
3.04977e-06
2.85591e-06
2.66205e-06
2.46943e-06
2.27938e-06
2.08933e-06
1.90189e-06
1.71667e-06
1.53168e-06
1.35231e-06
1.17294e-06
9.99431e-07
8.27001e-07
6.61754e-07
4.99415e-07
3.4034e-07
2.61201e-07
1.80116e-07
9.48795e-08
0
)


113
(
0
3.68646e-08
7.41812e-08
1.15959e-07
1.62993e-07
2.15993e-07
2.7543e-07
3.41572e-07
4.14563e-07
4.94487e-07
5.81399e-07
6.75346e-07
7.76361e-07
8.84485e-07
9.99736e-07
1.12265e-06
1.25363e-06
1.39172e-06
1.53685e-06
1.68893e-06
1.84783e-06
2.01343e-06
2.18556e-06
2.36492e-06
2.55211e-06
2.74797e-06
2.95017e-06
3.15548e-06
3.36384e-06
3.57622e-06
3.79077e-06
4.0079e-06
4.22828e-06
4.44887e-06
4.67151e-06
4.8939e-06
5.11685e-06
5.33911e-06
5.55844e-06
5.77812e-06
5.99608e-06
6.20998e-06
6.41829e-06
6.62319e-06
6.8228e-06
7.01695e-06
7.20414e-06
7.38491e-06
7.55642e-06
7.71936e-06
7.87407e-06
8.01886e-06
8.1534e-06
8.27742e-06
8.39034e-06
8.49e-06
8.57782e-06
8.65357e-06
8.71717e-06
8.7645e-06
8.79871e-06
8.82128e-06
8.82937e-06
8.81822e-06
8.79655e-06
8.76212e-06
8.70475e-06
8.63759e-06
8.55472e-06
8.45565e-06
8.34718e-06
8.21189e-06
8.06746e-06
7.89901e-06
7.71823e-06
7.52532e-06
7.31792e-06
7.10491e-06
6.87571e-06
6.64327e-06
6.39105e-06
6.13429e-06
5.86242e-06
5.58376e-06
5.2943e-06
4.99638e-06
4.69166e-06
4.37739e-06
4.05994e-06
3.73253e-06
3.40292e-06
3.23557e-06
3.06823e-06
2.90014e-06
2.7307e-06
2.56127e-06
2.39169e-06
2.22178e-06
2.05188e-06
1.88256e-06
1.71375e-06
1.54502e-06
1.37836e-06
1.2117e-06
1.0468e-06
8.82211e-07
7.1788e-07
5.51949e-07
3.81973e-07
2.94585e-07
2.02447e-07
1.05302e-07
0
)


113
(
0
8.73597e-08
1.69135e-07
2.50945e-07
3.35108e-07
4.22851e-07
5.14892e-07
6.11553e-07
7.12898e-07
8.18836e-07
9.29205e-07
1.04382e-06
1.16248e-06
1.285e-06
1.41119e-06
1.54109e-06
1.67465e-06
1.81125e-06
1.95067e-06
2.09274e-06
2.23725e-06
2.38401e-06
2.5328e-06
2.68362e-06
2.83592e-06
2.98947e-06
3.14402e-06
3.29933e-06
3.45513e-06
3.61116e-06
3.76716e-06
3.92283e-06
4.0779e-06
4.23189e-06
4.38126e-06
4.53286e-06
4.68268e-06
4.83046e-06
4.97592e-06
5.11877e-06
5.25876e-06
5.39551e-06
5.5288e-06
5.66756e-06
5.85856e-06
6.00074e-06
6.13097e-06
6.254e-06
6.36466e-06
6.46681e-06
6.55856e-06
6.63976e-06
6.71038e-06
6.77083e-06
6.82167e-06
6.85477e-06
6.87349e-06
6.84136e-06
6.76977e-06
6.78805e-06
6.79729e-06
6.79929e-06
6.79284e-06
6.77467e-06
6.74955e-06
6.71576e-06
6.68431e-06
6.64432e-06
6.57862e-06
6.50318e-06
6.42209e-06
6.32567e-06
6.22454e-06
6.11122e-06
5.98954e-06
5.85963e-06
5.71765e-06
5.57101e-06
5.4092e-06
5.24463e-06
5.06489e-06
4.88148e-06
4.68583e-06
4.48434e-06
4.27357e-06
4.05501e-06
3.83019e-06
3.5959e-06
3.35845e-06
3.11023e-06
2.85929e-06
2.73067e-06
2.60206e-06
2.47223e-06
2.34017e-06
2.20812e-06
2.07521e-06
1.94052e-06
1.80583e-06
1.6699e-06
1.5329e-06
1.39581e-06
1.25608e-06
1.11634e-06
9.73146e-07
8.29296e-07
6.79398e-07
5.25261e-07
3.63645e-07
2.79602e-07
1.90881e-07
9.82029e-08
0
)


113
(
0
1.21966e-07
2.3459e-07
3.41979e-07
4.46955e-07
5.50881e-07
6.54707e-07
7.59075e-07
8.64371e-07
9.70799e-07
1.07844e-06
1.1873e-06
1.29733e-06
1.40848e-06
1.52064e-06
1.63377e-06
1.74775e-06
1.86235e-06
1.97743e-06
2.09287e-06
2.20854e-06
2.32431e-06
2.44005e-06
2.53106e-06
2.64012e-06
2.7514e-06
2.86176e-06
2.97104e-06
3.0791e-06
3.18577e-06
3.29092e-06
3.39437e-06
3.49598e-06
3.5956e-06
3.69307e-06
3.78818e-06
3.88085e-06
3.97094e-06
4.05832e-06
4.14285e-06
4.22438e-06
4.30269e-06
4.37768e-06
4.44925e-06
4.5173e-06
4.58169e-06
4.64232e-06
4.69907e-06
4.75155e-06
4.79967e-06
4.84352e-06
4.88297e-06
4.918e-06
4.94858e-06
4.97474e-06
4.99507e-06
5.01041e-06
5.02112e-06
5.02731e-06
5.02728e-06
5.02162e-06
5.01145e-06
4.99604e-06
4.97337e-06
4.9464e-06
4.91407e-06
4.87413e-06
4.83033e-06
4.77954e-06
4.72255e-06
4.66196e-06
4.5916e-06
4.51823e-06
4.43707e-06
4.35052e-06
4.25868e-06
4.15902e-06
4.05635e-06
3.96051e-06
3.86289e-06
3.73527e-06
3.60533e-06
3.46765e-06
3.32621e-06
3.17877e-06
3.02617e-06
2.86942e-06
2.70609e-06
2.54055e-06
2.36684e-06
2.19075e-06
2.09993e-06
2.00911e-06
1.9169e-06
1.82219e-06
1.72748e-06
1.63143e-06
1.53261e-06
1.4338e-06
1.33248e-06
1.22902e-06
1.12536e-06
1.01643e-06
9.07496e-07
7.93033e-07
6.7755e-07
5.54727e-07
4.27856e-07
2.94427e-07
2.25181e-07
1.52753e-07
7.79205e-08
0
)


113
(
0
1.20109e-07
2.32256e-07
3.38069e-07
4.39417e-07
5.37092e-07
6.31741e-07
7.23921e-07
8.14079e-07
9.02557e-07
9.89604e-07
1.0754e-06
1.16008e-06
1.24372e-06
1.3264e-06
1.40806e-06
1.48869e-06
1.56839e-06
1.64714e-06
1.7249e-06
1.80166e-06
1.87736e-06
1.95195e-06
2.02519e-06
2.0972e-06
2.16794e-06
2.23732e-06
2.3053e-06
2.3718e-06
2.43676e-06
2.50011e-06
2.56178e-06
2.62171e-06
2.67983e-06
2.73608e-06
2.79034e-06
2.8426e-06
2.89281e-06
2.94092e-06
2.98687e-06
3.0306e-06
3.07199e-06
3.11102e-06
3.14765e-06
3.18186e-06
3.2136e-06
3.24282e-06
3.26948e-06
3.29337e-06
3.31445e-06
3.33283e-06
3.34845e-06
3.36132e-06
3.37145e-06
3.37887e-06
3.38277e-06
3.38368e-06
3.38183e-06
3.37731e-06
3.36913e-06
3.35768e-06
3.34362e-06
3.32652e-06
3.30528e-06
3.28159e-06
3.25485e-06
3.22382e-06
3.19062e-06
3.15351e-06
3.11294e-06
3.07037e-06
3.02238e-06
2.97273e-06
2.91877e-06
2.86185e-06
2.802e-06
2.73782e-06
2.67197e-06
2.6006e-06
2.52821e-06
2.45015e-06
2.37065e-06
2.28641e-06
2.19975e-06
2.10927e-06
2.01528e-06
1.91848e-06
1.81684e-06
1.71358e-06
1.60368e-06
1.49164e-06
1.43312e-06
1.37459e-06
1.31471e-06
1.25237e-06
1.19003e-06
1.12632e-06
1.05981e-06
9.93295e-07
9.24312e-07
8.53227e-07
7.81954e-07
7.05921e-07
6.29887e-07
5.49425e-07
4.68151e-07
3.81719e-07
2.92772e-07
1.99925e-07
1.52095e-07
1.02633e-07
5.20209e-08
0
)


113
(
0
8.01995e-08
1.56503e-07
2.29149e-07
2.98809e-07
3.65663e-07
4.29881e-07
4.91659e-07
5.51192e-07
6.0866e-07
6.64216e-07
7.17991e-07
7.70095e-07
8.20616e-07
8.69633e-07
9.17109e-07
9.63036e-07
1.00764e-06
1.05095e-06
1.093e-06
1.13382e-06
1.17343e-06
1.21184e-06
1.24889e-06
1.28478e-06
1.31952e-06
1.35312e-06
1.38557e-06
1.41688e-06
1.44704e-06
1.47606e-06
1.50393e-06
1.53065e-06
1.55621e-06
1.5806e-06
1.6038e-06
1.62582e-06
1.64667e-06
1.66634e-06
1.68483e-06
1.70212e-06
1.71818e-06
1.73301e-06
1.74662e-06
1.759e-06
1.77016e-06
1.78008e-06
1.78876e-06
1.79611e-06
1.80213e-06
1.80689e-06
1.81036e-06
1.81255e-06
1.8135e-06
1.81321e-06
1.81133e-06
1.80811e-06
1.80365e-06
1.79801e-06
1.79074e-06
1.78203e-06
1.77216e-06
1.76097e-06
1.74794e-06
1.73384e-06
1.71839e-06
1.70106e-06
1.68275e-06
1.66271e-06
1.64112e-06
1.61862e-06
1.59367e-06
1.56794e-06
1.54022e-06
1.51109e-06
1.48058e-06
1.44795e-06
1.4145e-06
1.37826e-06
1.3415e-06
1.30175e-06
1.26121e-06
1.21805e-06
1.17351e-06
1.12675e-06
1.07789e-06
1.02733e-06
9.73749e-07
9.1916e-07
8.60341e-07
8.00159e-07
7.68477e-07
7.36795e-07
7.04271e-07
6.70225e-07
6.36179e-07
6.01335e-07
5.64839e-07
5.28344e-07
4.90504e-07
4.5152e-07
4.12442e-07
3.70997e-07
3.29552e-07
2.8611e-07
2.42304e-07
1.96387e-07
1.49528e-07
1.01251e-07
7.66244e-08
5.14646e-08
2.59452e-08
0
)


113
(
0
7.91393e-09
1.56371e-08
2.31621e-08
3.05099e-08
3.76772e-08
4.46611e-08
5.14619e-08
5.80818e-08
6.4524e-08
7.07919e-08
7.68887e-08
8.28172e-08
8.85794e-08
9.41776e-08
9.96014e-08
1.04843e-07
1.09925e-07
1.14849e-07
1.19614e-07
1.24222e-07
1.28673e-07
1.32968e-07
1.37083e-07
1.41045e-07
1.44855e-07
1.48511e-07
1.52016e-07
1.55369e-07
1.5857e-07
1.6162e-07
1.6452e-07
1.67269e-07
1.69868e-07
1.72317e-07
1.74613e-07
1.76761e-07
1.78762e-07
1.80617e-07
1.82325e-07
1.83887e-07
1.853e-07
1.86565e-07
1.87685e-07
1.88661e-07
1.89493e-07
1.90181e-07
1.90727e-07
1.9112e-07
1.91363e-07
1.91462e-07
1.91418e-07
1.91233e-07
1.90908e-07
1.90448e-07
1.89813e-07
1.89033e-07
1.88119e-07
1.87077e-07
1.85861e-07
1.8449e-07
1.82996e-07
1.81361e-07
1.79534e-07
1.77592e-07
1.75511e-07
1.73231e-07
1.70851e-07
1.68291e-07
1.65572e-07
1.6276e-07
1.59697e-07
1.56556e-07
1.53215e-07
1.49733e-07
1.46113e-07
1.42287e-07
1.38382e-07
1.34209e-07
1.29986e-07
1.25486e-07
1.20916e-07
1.1611e-07
1.11184e-07
1.06069e-07
1.00781e-07
9.53547e-08
8.96959e-08
8.39597e-08
7.79206e-08
7.17912e-08
6.86213e-08
6.54514e-08
6.22305e-08
5.89174e-08
5.56043e-08
5.22472e-08
4.87989e-08
4.53507e-08
4.1835e-08
3.8262e-08
3.46846e-08
3.09993e-08
2.7314e-08
2.35455e-08
1.97618e-08
1.5897e-08
1.19985e-08
8.05011e-09
6.05945e-09
4.05151e-09
2.03228e-09
0
)

)


10
(

113
(
0
7.1441e-13
1.71385e-12
2.85211e-12
4.09153e-12
5.4071e-12
6.804e-12
8.27283e-12
9.86324e-12
1.15052e-11
1.33912e-11
1.56083e-11
1.8275e-11
2.16538e-11
2.61923e-11
3.33667e-11
4.46e-11
6.15308e-11
8.58667e-11
1.30533e-10
2.04923e-10
3.36e-10
5.71e-10
9.68538e-10
1.60623e-09
2.9675e-09
5.49417e-09
1.00775e-08
1.8175e-08
3.1975e-08
5.6725e-08
1.05673e-07
1.85333e-07
3.11e-07
5.12545e-07
8.38e-07
1.32455e-06
2.02727e-06
3e-06
4.33636e-06
5.97545e-06
8.014e-06
1.00836e-05
1.224e-05
1.43636e-05
1.62909e-05
1.80636e-05
1.96333e-05
2.09167e-05
2.2e-05
2.27692e-05
2.34083e-05
2.38538e-05
2.41143e-05
2.41857e-05
2.41429e-05
2.39857e-05
2.37e-05
2.33e-05
2.285e-05
2.235e-05
2.17937e-05
2.12125e-05
2.05875e-05
1.99882e-05
1.94e-05
1.87333e-05
1.80778e-05
1.74667e-05
1.68333e-05
1.61667e-05
1.55211e-05
1.48895e-05
1.42579e-05
1.36263e-05
1.298e-05
1.233e-05
1.172e-05
1.112e-05
1.0524e-05
9.929e-06
9.338e-06
8.748e-06
8.14579e-06
7.54053e-06
6.985e-06
6.435e-06
5.855e-06
5.27611e-06
4.73722e-06
4.20471e-06
3.94588e-06
3.68706e-06
3.43063e-06
3.18375e-06
2.93688e-06
2.69e-06
2.46333e-06
2.23667e-06
2.01e-06
1.7725e-06
1.535e-06
1.31645e-06
1.11055e-06
9.10556e-07
7.19444e-07
5.37143e-07
3.685e-07
2.31e-07
1.66e-07
9.68e-08
4.14e-08
0
)


113
(
0
8.34702e-13
1.87147e-12
3.03944e-12
4.32278e-12
5.74139e-12
7.35933e-12
9.3222e-12
1.19545e-11
1.5984e-11
2.28227e-11
3.54772e-11
5.87872e-11
1.01671e-10
1.9006e-10
3.67551e-10
7.04439e-10
1.32773e-09
2.34116e-09
4.23362e-09
7.79043e-09
1.35869e-08
2.29946e-08
3.77579e-08
6.04958e-08
9.73358e-08
1.52171e-07
2.3085e-07
3.40475e-07
4.8944e-07
6.95424e-07
9.71028e-07
1.33035e-06
1.77861e-06
2.32414e-06
2.98473e-06
3.76328e-06
4.66134e-06
5.6756e-06
6.80936e-06
8.03522e-06
9.32967e-06
1.06766e-05
1.20449e-05
1.34078e-05
1.47376e-05
1.60104e-05
1.72008e-05
1.82968e-05
1.92802e-05
2.01001e-05
2.08003e-05
2.13618e-05
2.17995e-05
2.20913e-05
2.22431e-05
2.22968e-05
2.22559e-05
2.20748e-05
2.18318e-05
2.15267e-05
2.11303e-05
2.0701e-05
2.02186e-05
1.96961e-05
1.91564e-05
1.85763e-05
1.79911e-05
1.73853e-05
1.67738e-05
1.61537e-05
1.55301e-05
1.49041e-05
1.42783e-05
1.36526e-05
1.30306e-05
1.24097e-05
1.17947e-05
1.11813e-05
1.05752e-05
9.97096e-06
9.3747e-06
8.78043e-06
8.19462e-06
7.61093e-06
7.0382e-06
6.4667e-06
5.90821e-06
5.35292e-06
4.81341e-06
4.28003e-06
4.02048e-06
3.76093e-06
3.50359e-06
3.25513e-06
3.00667e-06
2.75821e-06
2.52184e-06
2.28547e-06
2.0491e-06
1.82554e-06
1.60197e-06
1.38706e-06
1.1779e-06
9.75303e-07
7.82547e-07
5.99945e-07
4.27031e-07