/*--------------------------------*- C++ -*----------------------------------*\
| =========                 |                                                 |
| \\      /  F ield         | OpenFOAM: The Open Source CFD Toolbox           |
|  \\    /   O peration     | Version:  2.3.0                                 |
|   \\  /    A nd           | Web:      www.OpenFOAM.org                      |
|    \\/     M anipulation  |                                                 |
\*---------------------------------------------------------------------------*/
FoamFile
{
    version     2.0;
    format      ascii;
    class       dictionary;
    location    "constant";
    object      HNO;
}
// * * * * * * * * * * * * * * * * * * * * * * * * * * * * * * * * * * * * * //

HNO_table
13
(

10
(

113
(
0
8.63417e-13
2.18795e-12
3.851e-12
6.20737e-12
1.03433e-11
1.82322e-11
3.40416e-11
5.77717e-11
8.88689e-11
1.3271e-10
1.83949e-10
2.41e-10
3.15214e-10
4.00509e-10
5.01752e-10
6.34393e-10
7.84067e-10
9.78579e-10
1.21632e-09
1.49239e-09
1.86024e-09
2.27481e-09
2.79333e-09
3.41457e-09
4.09727e-09
4.96062e-09
5.88764e-09
6.90627e-09
8.02069e-09
9.16675e-09
1.03417e-08
1.14906e-08
1.26226e-08
1.37547e-08
1.50804e-08
1.66627e-08
1.93209e-08
2.27842e-08
2.79108e-08
3.36312e-08
3.91236e-08
4.0987e-08
4.02204e-08
3.69269e-08
3.25642e-08
2.80883e-08
2.43453e-08
2.09178e-08
1.81611e-08
1.57449e-08
1.37128e-08
1.19594e-08
1.03917e-08
9.09609e-09
7.92858e-09
6.98193e-09
6.1255e-09
5.44e-09
4.8313e-09
4.33133e-09
3.898e-09
3.5272e-09
3.21411e-09
2.93028e-09
2.69417e-09
2.46862e-09
2.28055e-09
2.09291e-09
1.91564e-09
1.73836e-09
1.55416e-09
1.36864e-09
1.17968e-09
9.88685e-10
8.06812e-10
6.38062e-10
4.79195e-10
3.68575e-10
2.57956e-10
1.94683e-10
1.36093e-10
9.67345e-11
6.81947e-11
4.53197e-11
3.16874e-11
1.92055e-11
1.32422e-11
7.2789e-12
4.72837e-12
2.2834e-12
1.6955e-12
1.308e-12
9.205e-13
5.33e-13
3.86292e-13
2.85449e-13
1.84607e-13
1.04867e-13
7.93924e-14
5.39177e-14
3.06358e-14
2.34343e-14
1.62328e-14
1.09778e-14
8.2e-15
5.72642e-15
4.03506e-15
2.53482e-15
1.83754e-15
1.18183e-15
5.64e-16
0
)


113
(
0
1.28314e-12
3.60601e-12
7.86448e-12
1.50633e-11
2.62341e-11
4.30185e-11
6.82428e-11
1.01211e-10
1.41567e-10
1.97887e-10
2.67042e-10
3.46284e-10
4.5687e-10
5.84972e-10
7.38279e-10
9.37267e-10
1.16023e-09
1.44449e-09
1.77655e-09
2.15101e-09
2.62072e-09
3.13192e-09
3.73107e-09
4.4132e-09
5.14488e-09
6.01667e-09
6.95192e-09
7.97849e-09
9.14299e-09
1.03808e-08
1.17646e-08
1.32521e-08
1.48085e-08
1.64975e-08
1.8203e-08
1.99307e-08
2.15753e-08
2.3131e-08
2.44857e-08
2.55347e-08
2.6378e-08
2.67199e-08
2.67319e-08
2.64269e-08
2.56055e-08
2.46339e-08
2.32418e-08
2.17566e-08
2.00735e-08
1.83645e-08
1.66264e-08
1.49616e-08
1.33457e-08
1.18855e-08
1.04986e-08
9.3033e-09
8.18631e-09
7.24538e-09
6.38356e-09
5.65707e-09
5.01353e-09
4.45629e-09
3.97871e-09
3.54612e-09
3.18693e-09
2.84532e-09
2.56608e-09
2.28891e-09
2.06164e-09
1.83436e-09
1.63574e-09
1.44259e-09
1.26599e-09
1.09911e-09
9.4298e-10
8.02331e-10
6.66608e-10
5.54932e-10
4.43257e-10
3.59478e-10
2.78458e-10
2.15517e-10
1.62745e-10
1.18305e-10
8.74583e-11
5.88188e-11
4.26883e-11
2.65578e-11
1.86437e-11
1.09836e-11
8.79561e-12
7.12611e-12
5.45662e-12
3.78712e-12
2.95529e-12
2.28302e-12
1.61074e-12
1.05623e-12
8.04538e-13
5.52843e-13
3.20745e-13
2.32367e-13
1.4399e-13
8.09835e-14
5.02689e-14
2.49358e-14
1.34405e-14
6.12258e-15
3.62669e-15
2.13261e-15
9.26784e-16
0
)


113
(
0
9.82187e-12
2.52814e-11
4.88998e-11
8.17373e-11
1.25422e-10
1.83507e-10
2.60572e-10
3.54733e-10
4.64977e-10
6.07982e-10
7.75947e-10
9.63523e-10
1.20614e-09
1.4739e-09
1.77782e-09
2.136e-09
2.52115e-09
2.97166e-09
3.45923e-09
3.97966e-09
4.58158e-09
5.21204e-09
5.89797e-09
6.61533e-09
7.35167e-09
8.15237e-09
8.96842e-09
9.80656e-09
1.06554e-08
1.1504e-08
1.23416e-08
1.31629e-08
1.39722e-08
1.47063e-08
1.54051e-08
1.60569e-08
1.66105e-08
1.71125e-08
1.75217e-08
1.78263e-08
1.8065e-08
1.81654e-08
1.81826e-08
1.81199e-08
1.7916e-08
1.76686e-08
1.7288e-08
1.68598e-08
1.63308e-08
1.57494e-08
1.51088e-08
1.44177e-08
1.36929e-08
1.29415e-08
1.21774e-08
1.14189e-08
1.06625e-08
9.89827e-09
9.13052e-09
8.41116e-09
7.72147e-09
7.06177e-09
6.42976e-09
5.82734e-09
5.27318e-09
4.73746e-09
4.2671e-09
3.79991e-09
3.40881e-09
3.0177e-09
2.68721e-09
2.36825e-09
2.0897e-09
1.83487e-09
1.60108e-09
1.39756e-09
1.20188e-09
1.04439e-09
8.86899e-10
7.63419e-10
6.43302e-10
5.42497e-10
4.52554e-10
3.71974e-10
3.06671e-10
2.44252e-10
1.98177e-10
1.52101e-10
1.20608e-10
8.95653e-11
7.81715e-11
6.80812e-11
5.79909e-11
4.79006e-11
4.10433e-11
3.48017e-11
2.85602e-11
2.29789e-11
1.90952e-11
1.52114e-11
1.15178e-11
9.21835e-12
6.91886e-12
5.02055e-12
3.63283e-12
2.39113e-12
1.52487e-12
8.51129e-13
5.69991e-13
3.59542e-13
1.71859e-13
0
)


113
(
0
6.64565e-11
1.42432e-10
2.37135e-10
3.50843e-10
4.83909e-10
6.38743e-10
8.1972e-10
1.02097e-09
1.24043e-09
1.49272e-09
1.76564e-09
2.05479e-09
2.38861e-09
2.73674e-09
3.10548e-09
3.50161e-09
3.90852e-09
4.33472e-09
4.77783e-09
5.23592e-09
5.70121e-09
6.17172e-09
6.65486e-09
7.12953e-09
7.5999e-09
8.09333e-09
8.5733e-09
9.03393e-09
9.49075e-09
9.94064e-09
1.0368e-08
1.07723e-08
1.11608e-08
1.15007e-08
1.18243e-08
1.21261e-08
1.23734e-08
1.25962e-08
1.2779e-08
1.29234e-08
1.30427e-08
1.31044e-08
1.31342e-08
1.31334e-08
1.30747e-08
1.29983e-08
1.28678e-08
1.27154e-08
1.25165e-08
1.22901e-08
1.20325e-08
1.17391e-08
1.14216e-08
1.10952e-08
1.07644e-08
1.03834e-08
9.98183e-09
9.56649e-09
9.14495e-09
8.72797e-09
8.31378e-09
7.89105e-09
7.46044e-09
7.03408e-09
6.61465e-09
6.19723e-09
5.78692e-09
5.37827e-09
5.00939e-09
4.64051e-09
4.27897e-09
3.91883e-09
3.58725e-09
3.27244e-09
2.97376e-09
2.69829e-09
2.42888e-09
2.18905e-09
1.94921e-09
1.73903e-09
1.53179e-09
1.34901e-09
1.17999e-09
1.02314e-09
8.86143e-10
7.53512e-10
6.45608e-10
5.37704e-10
4.53061e-10
3.69139e-10
3.34728e-10
3.02702e-10
2.70675e-10
2.38649e-10
2.13215e-10
1.89037e-10
1.6486e-10
1.42364e-10
1.24194e-10
1.06023e-10
8.83904e-11
7.47022e-11
6.10139e-11
4.87556e-11
3.83172e-11
2.85033e-11
2.02951e-11
1.29613e-11
9.54223e-12
6.38225e-12
3.24234e-12
0
)


113
(
0
1.68901e-10
3.31063e-10
5.02636e-10
6.87283e-10
8.85645e-10
1.09876e-09
1.32766e-09
1.56745e-09
1.81662e-09
2.08065e-09
2.3527e-09
2.63106e-09
2.92164e-09
3.21622e-09
3.51655e-09
3.82246e-09
4.13043e-09
4.44167e-09
4.7533e-09
5.06529e-09
5.37499e-09
5.68294e-09
5.98663e-09
6.29216e-09
6.59867e-09
6.90225e-09
7.1923e-09
7.46288e-09
7.73687e-09
7.99866e-09
8.21135e-09
8.41913e-09
8.62383e-09
8.83163e-09
9.01046e-09
9.15089e-09
9.28727e-09
9.4129e-09
9.51138e-09
9.59281e-09
9.66265e-09
9.70365e-09
9.73059e-09
9.74402e-09
9.73103e-09
9.70934e-09
9.65793e-09
9.5974e-09
9.51748e-09
9.41915e-09
9.30006e-09
9.17763e-09
9.05298e-09
8.88967e-09
8.70817e-09
8.51991e-09
8.32889e-09
8.12026e-09
7.90371e-09
7.67989e-09
7.45162e-09
7.21847e-09
6.98082e-09
6.7276e-09
6.44898e-09
6.1741e-09
5.91247e-09
5.65119e-09
5.39818e-09
5.14517e-09
4.86095e-09
4.57079e-09
4.30164e-09
4.04484e-09
3.79572e-09
3.55767e-09
3.32062e-09
3.08844e-09
2.85626e-09
2.63869e-09
2.42257e-09
2.21802e-09
2.01997e-09
1.82927e-09
1.65055e-09
1.47481e-09
1.31593e-09
1.15706e-09
1.01717e-09
8.7787e-10
8.1528e-10
7.5492e-10
6.94561e-10
6.34201e-10
5.80985e-10
5.2913e-10
4.77275e-10
4.27532e-10
3.83217e-10
3.38902e-10
2.95352e-10
2.57414e-10
2.19477e-10
1.83689e-10
1.50638e-10
1.18445e-10
8.84618e-11
5.92649e-11
4.48595e-11
3.03437e-11
1.55201e-11
0
)


113
(
0
2.2915e-10
4.37132e-10
6.37704e-10
8.37691e-10
1.03961e-09
1.24495e-09
1.45464e-09
1.66727e-09
1.88238e-09
2.10087e-09
2.32059e-09
2.54129e-09
2.76259e-09
2.98347e-09
3.20375e-09
3.42193e-09
3.63888e-09
3.85239e-09
4.06296e-09
4.27091e-09
4.47268e-09
4.67167e-09
4.86468e-09
5.05183e-09
5.23548e-09
5.40919e-09
5.57836e-09
5.741e-09
5.89417e-09
6.04235e-09
6.18063e-09
6.31088e-09
6.43525e-09
6.52352e-09
6.61529e-09
6.71172e-09
6.79598e-09
6.87417e-09
6.94174e-09
6.99923e-09
7.05043e-09
7.08864e-09
7.17418e-09
7.30517e-09
7.34144e-09
7.3577e-09
7.35804e-09
7.34915e-09
7.32064e-09
7.27609e-09
7.21347e-09
7.14271e-09
7.06654e-09
6.99e-09
6.9133e-09
6.74118e-09
6.5301e-09
6.38622e-09
6.27254e-09
6.15036e-09
6.02297e-09
5.88913e-09
5.74936e-09
5.60545e-09
5.45479e-09
5.30463e-09
5.15621e-09
5.00697e-09
4.83818e-09
4.66939e-09
4.49624e-09
4.32226e-09
4.14615e-09
3.9688e-09
3.79082e-09
3.61194e-09
3.43312e-09
3.25457e-09
3.07602e-09
2.89945e-09
2.72308e-09
2.54926e-09
2.37686e-09
2.20663e-09
2.0399e-09
1.87425e-09
1.71472e-09
1.55519e-09
1.40388e-09
1.25282e-09
1.18085e-09
1.11e-09
1.03916e-09
9.68312e-10
9.01495e-10
8.35445e-10
7.69396e-10
7.04592e-10
6.42994e-10
5.81397e-10
5.2022e-10
4.62136e-10
4.04051e-10
3.4683e-10
2.90708e-10
2.34609e-10
1.7857e-10
1.21517e-10
9.26358e-11
6.26885e-11
3.19879e-11
0
)


113
(
0
2.20654e-10
4.20532e-10
6.06651e-10
7.84682e-10
9.57225e-10
1.12563e-09
1.29089e-09
1.45433e-09
1.61628e-09
1.77594e-09
1.93416e-09
2.09126e-09
2.24544e-09
2.39823e-09
2.549e-09
2.6966e-09
2.84263e-09
2.9849e-09
3.12448e-09
3.26169e-09
3.39393e-09
3.51966e-09
3.62844e-09
3.7415e-09
3.85681e-09
3.96506e-09
4.07024e-09
4.17097e-09
4.2655e-09
4.3568e-09
4.44178e-09
4.52177e-09
4.5984e-09
4.66685e-09
4.73166e-09
4.79165e-09
4.84439e-09
4.89352e-09
4.93636e-09
4.97324e-09
5.0064e-09
5.03188e-09
5.05278e-09
5.06926e-09
5.07796e-09
5.08413e-09
5.08183e-09
5.07642e-09
5.06441e-09
5.04783e-09
5.02607e-09
4.9985e-09
4.96705e-09
4.92902e-09
4.88789e-09
4.83995e-09
4.78923e-09
4.73201e-09
4.67186e-09
4.60605e-09
4.53675e-09
4.46289e-09
4.38482e-09
4.30358e-09
4.21719e-09
4.12909e-09
4.03495e-09
3.94051e-09
3.83923e-09
3.73795e-09
3.63126e-09
3.52355e-09
3.41226e-09
3.29887e-09
3.1835e-09
3.06526e-09
2.94841e-09
2.83837e-09
2.72832e-09
2.60211e-09
2.47429e-09
2.34552e-09
2.21623e-09
2.08672e-09
1.95688e-09
1.82709e-09
1.6976e-09
1.5681e-09
1.43965e-09
1.31122e-09
1.24754e-09
1.18403e-09
1.12051e-09
1.057e-09
9.93963e-10
9.31014e-10
8.68066e-10
8.05129e-10
7.42223e-10
6.79317e-10
6.16308e-10
5.52542e-10
4.88776e-10
4.24135e-10
3.58381e-10
2.91791e-10
2.23051e-10
1.52047e-10
1.15837e-10
7.81822e-11
3.97172e-11
0
)


113
(
0
1.65622e-10
3.18506e-10
4.60736e-10
5.95114e-10
7.23042e-10
8.45061e-10
9.61525e-10
1.0744e-09
1.18426e-09
1.28946e-09
1.39208e-09
1.4927e-09
1.589e-09
1.68362e-09
1.77581e-09
1.86476e-09
1.95222e-09
2.03633e-09
2.1183e-09
2.19836e-09
2.27474e-09
2.34964e-09
2.42146e-09
2.49058e-09
2.55811e-09
2.62143e-09
2.68297e-09
2.74194e-09
2.79738e-09
2.85099e-09
2.90107e-09
2.94838e-09
2.99383e-09
3.03479e-09
3.07376e-09
3.1101e-09
3.14249e-09
3.17293e-09
3.19996e-09
3.22376e-09
3.24554e-09
3.26316e-09
3.2783e-09
3.29104e-09
3.29954e-09
3.30666e-09
3.30915e-09
3.30993e-09
3.30708e-09
3.30168e-09
3.29341e-09
3.28188e-09
3.26817e-09
3.25071e-09
3.23149e-09
3.20833e-09
3.18357e-09
3.15496e-09
3.12464e-09
3.09089e-09
3.05505e-09
3.01637e-09
2.97509e-09
2.93178e-09
2.88517e-09
2.83742e-09
2.78565e-09
2.73369e-09
2.67696e-09
2.62023e-09
2.55952e-09
2.49806e-09
2.43378e-09
2.36784e-09
2.30017e-09
2.23002e-09
2.1592e-09
2.0851e-09
2.01099e-09
1.93353e-09
1.85574e-09
1.77574e-09
1.69451e-09
1.61204e-09
1.52755e-09
1.44259e-09
1.35493e-09
1.26728e-09
1.17645e-09
1.08553e-09
1.03869e-09
9.91429e-10
9.44164e-10
8.96899e-10
8.47872e-10
7.98508e-10
7.49144e-10
6.99076e-10
6.47198e-10
5.9532e-10
5.43085e-10
4.88234e-10
4.33382e-10
3.77069e-10
3.18898e-10
2.59781e-10
1.98234e-10
1.34687e-10
1.02304e-10
6.88376e-11
3.48221e-11
0
)


113
(
0
8.90224e-11
1.73275e-10
2.5297e-10
3.2888e-10
4.01378e-10
4.70462e-10
5.36011e-10
5.99121e-10
6.60127e-10
7.17727e-10
7.73386e-10
8.27519e-10
8.78383e-10
9.27983e-10
9.75765e-10
1.02121e-09
1.0656e-09
1.10769e-09
1.14837e-09
1.18781e-09
1.22497e-09
1.26124e-09
1.2957e-09
1.32866e-09
1.36073e-09
1.39055e-09
1.41946e-09
1.44705e-09
1.47289e-09
1.49784e-09
1.5211e-09
1.54306e-09
1.56415e-09
1.58319e-09
1.60133e-09
1.61829e-09
1.63351e-09
1.64786e-09
1.66073e-09
1.67219e-09
1.68279e-09
1.69159e-09
1.69933e-09
1.70605e-09
1.71095e-09
1.71527e-09
1.7176e-09
1.71921e-09
1.71926e-09
1.71821e-09
1.71594e-09
1.71225e-09
1.70762e-09
1.70135e-09
1.69432e-09
1.68554e-09
1.67606e-09
1.66485e-09
1.65287e-09
1.63932e-09
1.62481e-09
1.60898e-09
1.59191e-09
1.57387e-09
1.55423e-09
1.53402e-09
1.51179e-09
1.48946e-09
1.46462e-09
1.43978e-09
1.41273e-09
1.38526e-09
1.35612e-09
1.32598e-09
1.29474e-09
1.26189e-09
1.22856e-09
1.19292e-09
1.15727e-09
1.11896e-09
1.0804e-09
1.03988e-09
9.98251e-10
9.55399e-10
9.10543e-10
8.6517e-10
8.16864e-10
7.68559e-10
7.16666e-10
6.64663e-10
6.3716e-10
6.09183e-10
5.81206e-10
5.53228e-10
5.23502e-10
4.93442e-10
4.63382e-10
4.32721e-10
4.00511e-10
3.68301e-10
3.35833e-10
3.01477e-10
2.67122e-10
2.31875e-10
1.95495e-10
1.58619e-10
1.20469e-10
8.13917e-11
6.15746e-11
4.12988e-11
2.08049e-11
0
)


113
(
0
7.36387e-12
1.45496e-11
2.15484e-11
2.83777e-11
3.50428e-11
4.15315e-11
4.78205e-11
5.39616e-11
5.99717e-11
6.57537e-11
7.13955e-11
7.69271e-11
8.22054e-11
8.73798e-11
9.24046e-11
9.72269e-11
1.01956e-10
1.06476e-10
1.10864e-10
1.15135e-10
1.19186e-10
1.23149e-10
1.26933e-10
1.30565e-10
1.34107e-10
1.37419e-10
1.40636e-10
1.43717e-10
1.46615e-10
1.49421e-10
1.52048e-10
1.5454e-10
1.5694e-10
1.59123e-10
1.61213e-10
1.63177e-10
1.64957e-10
1.66647e-10
1.68179e-10
1.69563e-10
1.70855e-10
1.71958e-10
1.72949e-10
1.7383e-10
1.74521e-10
1.75148e-10
1.75566e-10
1.75906e-10
1.7608e-10
1.76137e-10
1.76063e-10
1.75837e-10
1.75509e-10
1.75005e-10
1.74418e-10
1.7364e-10
1.72786e-10
1.71741e-10
1.70612e-10
1.69308e-10
1.67898e-10
1.66338e-10
1.64641e-10
1.62832e-10
1.60841e-10
1.58785e-10
1.56496e-10
1.54195e-10
1.51603e-10
1.49011e-10
1.46159e-10
1.43258e-10
1.4016e-10
1.36946e-10
1.33601e-10
1.30067e-10
1.26478e-10
1.22617e-10
1.18756e-10
1.14591e-10
1.10397e-10
1.05984e-10
1.0145e-10
9.67846e-11
9.19071e-11
8.69782e-11
8.17577e-11
7.65372e-11
7.09881e-11
6.54289e-11
6.25248e-11
5.95814e-11
5.66379e-11
5.36945e-11
5.06215e-11
4.75238e-11
4.44261e-11
4.12889e-11
3.80501e-11
3.48112e-11
3.15574e-11
2.81937e-11
2.48301e-11
2.14203e-11
1.79516e-11
1.44598e-11
1.09081e-11
7.31639e-12
5.50857e-12
3.68206e-12
1.84701e-12
0
)

)


10
(

113
(
0
6.53282e-12
1.67902e-11
3.12699e-11
5.15149e-11
8.35569e-11
1.38379e-10
2.29415e-10
3.66783e-10
5.51618e-10
7.76197e-10
1.0288e-09
1.2987e-09
1.57799e-09
1.86171e-09
2.14848e-09
2.43865e-09
2.73384e-09
3.03702e-09
3.35169e-09
3.68162e-09
4.03075e-09
4.40345e-09
4.80832e-09
5.24499e-09
5.71703e-09
6.22604e-09
6.7736e-09
7.36155e-09
7.99347e-09
8.68049e-09
9.45307e-09
1.03823e-08
1.16099e-08
1.33971e-08
1.61847e-08
2.05016e-08
2.68826e-08
3.57093e-08
4.67754e-08
5.87887e-08
6.90411e-08
7.46311e-08
7.4328e-08
6.90379e-08
6.09173e-08
5.21558e-08
4.41889e-08
3.77357e-08
3.27665e-08
2.89452e-08
2.599e-08
2.36342e-08
2.16737e-08
1.99581e-08
1.83853e-08
1.68423e-08
1.53002e-08
1.37471e-08
1.21774e-08
1.06227e-08
9.10325e-09
7.64411e-09
6.33297e-09
5.13045e-09
4.07099e-09
3.22793e-09
2.48722e-09
1.9232e-09
1.48064e-09
1.1085e-09
8.68726e-10
6.56627e-10
5.11636e-10
3.94807e-10
3.05693e-10
2.41167e-10
1.86156e-10
1.50101e-10
1.16911e-10
9.54839e-11
7.5798e-11
6.19108e-11
4.97033e-11
4.01678e-11
3.21138e-11
2.52524e-11
1.98437e-11
1.49193e-11
1.15523e-11
8.55828e-12
7.49225e-12
6.42622e-12
5.50684e-12
4.85275e-12
4.19866e-12
3.62222e-12
3.20632e-12
2.79041e-12
2.43991e-12
2.1451e-12
1.85243e-12
1.61382e-12
1.37521e-12
1.1579e-12
9.44388e-13
7.4292e-13
5.45399e-13
3.5396e-13
2.60415e-13
1.69442e-13
8.16089e-14
0
)


113
(
0
9.69858e-12
2.63966e-11
5.4891e-11
9.90313e-11
1.64376e-10
2.5582e-10
3.76584e-10
5.27356e-10
7.06596e-10
9.11573e-10
1.13886e-09
1.3852e-09
1.64793e-09
1.92504e-09
2.21601e-09
2.52181e-09
2.84196e-09
3.1787e-09
3.53527e-09
3.91623e-09
4.32785e-09
4.77868e-09
5.2917e-09
5.87855e-09
6.56314e-09
7.37575e-09
8.3526e-09
9.53613e-09
1.09702e-08
1.26954e-08
1.475e-08
1.71562e-08
1.99186e-08
2.30084e-08
2.63698e-08
2.98928e-08
3.34484e-08
3.68873e-08
4.0045e-08
4.27645e-08
4.488e-08
4.63026e-08
4.69805e-08
4.69049e-08
4.60939e-08
4.46348e-08
4.26463e-08
4.0225e-08
3.75146e-08
3.4657e-08
3.1764e-08
2.89203e-08
2.61835e-08
2.3591e-08
2.12173e-08
1.90289e-08
1.70014e-08
1.51217e-08
1.34247e-08
1.18695e-08
1.04191e-08
9.08335e-09
7.89065e-09
6.77862e-09
5.76535e-09
4.88619e-09
4.07296e-09
3.37633e-09
2.77466e-09
2.22805e-09
1.81244e-09
1.43118e-09
1.13691e-09
8.89596e-10
6.88488e-10
5.37417e-10
4.05707e-10
3.18383e-10
2.37947e-10
1.87234e-10
1.41107e-10
1.10246e-10
8.40318e-11
6.52075e-11
5.03141e-11
3.85855e-11
3.00077e-11
2.24803e-11
1.75443e-11
1.3118e-11
1.14887e-11
9.85934e-12
8.42637e-12
7.34857e-12
6.27078e-12
5.31109e-12
4.59561e-12
3.88012e-12
3.28734e-12
2.7991e-12
2.31599e-12
1.96279e-12
1.60959e-12
1.32139e-12
1.04482e-12
8.09776e-13
5.85661e-13
3.77102e-13
2.77618e-13
1.82345e-13
9.08851e-14
0
)


113
(
0
3.93094e-11
9.43972e-11
1.69758e-10
2.64587e-10
3.81154e-10
5.21883e-10
6.86475e-10
8.7668e-10
1.09398e-09
1.34009e-09
1.61714e-09
1.92772e-09
2.27483e-09
2.66163e-09
3.09569e-09
3.58599e-09
4.13027e-09
4.73308e-09
5.39846e-09
6.13074e-09
6.93488e-09
7.81576e-09
8.78886e-09
9.8358e-09
1.09494e-08
1.2133e-08
1.33845e-08
1.46979e-08
1.60645e-08
1.74699e-08
1.88988e-08
2.03298e-08
2.17441e-08
2.311e-08
2.44301e-08
2.56858e-08
2.68452e-08
2.78969e-08
2.8825e-08
2.96107e-08
3.02371e-08
3.06926e-08
3.09768e-08
3.1095e-08
3.10395e-08
3.07963e-08
3.04011e-08
2.9845e-08
2.91265e-08
2.82645e-08
2.72755e-08
2.61866e-08
2.50176e-08
2.37796e-08
2.24759e-08
2.11366e-08
1.97807e-08
1.84195e-08
1.70693e-08
1.57416e-08
1.44389e-08
1.31711e-08
1.19679e-08
1.08089e-08
9.7072e-09
8.69443e-09
7.72753e-09
6.84408e-09
6.03297e-09
5.26379e-09
4.6036e-09
3.9751e-09
3.42819e-09
2.93212e-09
2.48611e-09
2.10681e-09
1.75332e-09
1.47261e-09
1.20439e-09
9.99397e-10
8.06935e-10
6.56184e-10
5.22059e-10
4.1438e-10
3.24871e-10
2.4999e-10
1.93664e-10
1.43523e-10
1.09844e-10
7.98247e-11
6.90297e-11
5.82347e-11
4.87746e-11
4.17295e-11
3.46843e-11
2.84706e-11
2.39758e-11
1.9481e-11
1.5836e-11
1.2915e-11
1.00316e-11
8.09967e-12
6.16776e-12
4.75388e-12
3.43298e-12
2.48241e-12
1.65135e-12
9.85393e-13
7.00262e-13
4.56717e-13
2.30467e-13
0
)


113
(
0
1.30571e-10
2.73224e-10
4.45278e-10
6.45959e-10
8.76733e-10
1.1391e-09
1.43426e-09
1.76308e-09
2.12613e-09
2.52368e-09
2.95584e-09
3.42727e-09
3.93884e-09
4.48163e-09
5.05869e-09
5.66718e-09
6.30166e-09
6.96731e-09
7.65713e-09
8.36856e-09
9.10924e-09
9.86681e-09
1.06445e-08
1.14257e-08
1.22104e-08
1.3001e-08
1.38e-08
1.45881e-08
1.53504e-08
1.61013e-08
1.68254e-08
1.75279e-08
1.82068e-08
1.88508e-08
1.9447e-08
1.9982e-08
2.04692e-08
2.09126e-08
2.12969e-08
2.16141e-08
2.18749e-08
2.20682e-08
2.21937e-08
2.22526e-08
2.22516e-08
2.21851e-08
2.20426e-08
2.18434e-08
2.15887e-08
2.12613e-08
2.08678e-08
2.0426e-08
1.99427e-08
1.94128e-08
1.88275e-08
1.82119e-08
1.75712e-08
1.69074e-08
1.62105e-08
1.54894e-08
1.47516e-08
1.39965e-08
1.32468e-08
1.25006e-08
1.17588e-08
1.10245e-08
1.02962e-08
9.58112e-09
8.88573e-09
8.20174e-09
7.55754e-09
6.926e-09
6.32747e-09
5.75369e-09
5.20425e-09
4.69993e-09
4.21308e-09
3.77468e-09
3.34518e-09
2.96492e-09
2.5979e-09
2.27494e-09
1.97098e-09
1.69723e-09
1.45132e-09
1.22783e-09
1.03652e-09
8.55951e-10
7.11191e-10
5.75752e-10
5.18832e-10
4.61913e-10
4.09449e-10
3.65045e-10
3.20642e-10
2.79493e-10
2.45072e-10
2.10651e-10
1.80429e-10
1.53783e-10
1.27363e-10
1.06654e-10
8.59462e-11
6.90337e-11
5.28065e-11
3.98065e-11
2.7964e-11
1.7709e-11
1.30321e-11
8.6802e-12
4.40117e-12
0
)


113
(
0
2.88895e-10
5.62895e-10
8.51436e-10
1.16028e-09
1.49167e-09
1.84584e-09
2.22175e-09
2.61788e-09
3.03255e-09
3.46413e-09
3.91107e-09
4.37186e-09
4.84508e-09
5.32928e-09
5.82356e-09
6.32635e-09
6.83487e-09
7.34751e-09
7.8626e-09
8.37845e-09
8.89333e-09
9.40541e-09
9.91177e-09
1.04221e-08
1.09266e-08
1.14386e-08
1.19235e-08
1.23783e-08
1.28268e-08
1.3248e-08
1.36472e-08
1.40349e-08
1.43824e-08
1.47304e-08
1.50341e-08
1.52993e-08
1.55336e-08
1.57541e-08
1.59609e-08
1.61329e-08
1.62451e-08
1.63469e-08
1.64131e-08
1.64529e-08
1.64597e-08
1.64339e-08
1.63872e-08
1.62964e-08
1.61895e-08
1.60479e-08
1.58699e-08
1.56666e-08
1.54416e-08
1.51898e-08
1.49235e-08
1.46314e-08
1.43108e-08
1.39642e-08
1.36019e-08
1.32321e-08
1.28493e-08
1.24456e-08
1.20246e-08
1.15982e-08
1.11668e-08
1.07116e-08
1.02542e-08
9.80322e-09
9.3613e-09
8.92463e-09
8.44958e-09
7.97231e-09
7.49268e-09
7.04196e-09
6.61968e-09
6.19308e-09
5.7648e-09
5.35812e-09
4.95527e-09
4.57286e-09
4.1962e-09
3.83869e-09
3.49159e-09
3.16103e-09
2.8461e-09
2.54373e-09
2.26281e-09
1.98903e-09
1.74318e-09
1.50555e-09
1.39631e-09
1.28706e-09
1.18235e-09
1.08583e-09
9.89318e-10
8.96618e-10
8.11803e-10
7.26988e-10
6.47832e-10
5.73498e-10
4.99507e-10
4.34219e-10
3.6893e-10
3.09885e-10
2.51966e-10
1.99323e-10
1.48315e-10
9.92704e-11
7.51176e-11
5.08154e-11
2.5979e-11
0
)


113
(
0
3.87178e-10
7.36628e-10
1.07345e-09
1.40897e-09
1.74778e-09
2.09207e-09
2.44247e-09
2.79863e-09
3.15973e-09
3.52473e-09
3.89256e-09
4.26215e-09
4.6325e-09
5.00264e-09
5.37147e-09
5.73768e-09
6.10059e-09
6.45939e-09
6.8133e-09
7.16154e-09
7.50335e-09
7.83795e-09
8.16328e-09
8.47985e-09
8.78701e-09
9.08411e-09
9.37053e-09
9.64569e-09
9.909e-09
1.01599e-08
1.0398e-08
1.06227e-08
1.08314e-08
1.09852e-08
1.11659e-08
1.13319e-08
1.14829e-08
1.16189e-08
1.17396e-08
1.18449e-08
1.19344e-08
1.20081e-08
1.20955e-08
1.23398e-08
1.23931e-08
1.24283e-08
1.24468e-08
1.24331e-08
1.23957e-08
1.23318e-08
1.22535e-08
1.21513e-08
1.20221e-08
1.18756e-08
1.16887e-08
1.15248e-08
1.12514e-08
1.08742e-08
1.06834e-08
1.04806e-08
1.02685e-08
1.00462e-08
9.81098e-09
9.56883e-09
9.31826e-09
9.08e-09
8.8334e-09
8.55631e-09
8.27348e-09
7.98732e-09
7.69392e-09
7.39879e-09
7.09935e-09
6.79796e-09
6.49465e-09
6.19001e-09
5.88485e-09
5.57994e-09
5.27523e-09
4.97275e-09
4.67132e-09
4.37337e-09
4.07797e-09
3.78661e-09
3.49995e-09
3.21708e-09
2.94186e-09
2.66919e-09
2.40808e-09
2.15082e-09
2.0267e-09
1.90257e-09
1.78082e-09
1.66337e-09
1.54592e-09
1.43062e-09
1.31977e-09
1.20891e-09
1.10131e-09
9.96472e-10
8.91823e-10
7.91858e-10
6.91893e-10
5.9462e-10
4.97824e-10
4.02112e-10
3.0591e-10
2.08342e-10
1.58707e-10
1.07516e-10
5.48502e-11
0
)


113
(
0
3.7354e-10
7.1079e-10
1.02474e-09
1.32506e-09
1.61588e-09
1.89998e-09
2.17924e-09
2.45482e-09
2.72734e-09
2.99708e-09
3.26409e-09
3.52827e-09
3.78945e-09
4.04739e-09
4.30154e-09
4.55127e-09
4.79672e-09
5.0376e-09
5.27361e-09
5.50445e-09
5.72984e-09
5.94949e-09
6.1138e-09
6.30763e-09
6.5002e-09
6.68544e-09
6.86311e-09
7.03298e-09
7.19486e-09
7.34854e-09
7.49387e-09
7.63065e-09
7.75877e-09
7.87808e-09
7.98826e-09
8.08946e-09
8.18164e-09
8.26477e-09
8.33879e-09
8.40367e-09
8.45909e-09
8.5052e-09
8.54211e-09
8.56989e-09
8.58856e-09
8.59817e-09
8.59883e-09
8.58996e-09
8.57177e-09
8.5448e-09
8.50911e-09
8.46494e-09
8.41254e-09
8.35221e-09
8.28187e-09
8.20336e-09
8.11752e-09
8.02472e-09
7.92272e-09
7.81285e-09
7.69688e-09
7.57398e-09
7.44207e-09
7.30507e-09
7.16184e-09
7.01035e-09
6.85486e-09
6.69234e-09
6.52407e-09
6.35248e-09
6.17262e-09
5.99044e-09
5.8023e-09
5.61051e-09
5.41511e-09
5.21506e-09
5.01322e-09
4.82882e-09
4.64362e-09
4.42746e-09
4.21071e-09
3.992e-09
3.77272e-09
3.55252e-09
3.33208e-09
3.11145e-09
2.89124e-09
2.67117e-09
2.45245e-09
2.23426e-09
2.12581e-09
2.01735e-09
1.90921e-09
1.80163e-09
1.69405e-09
1.58665e-09
1.47959e-09
1.37254e-09
1.26538e-09
1.15812e-09
1.05083e-09
9.42327e-10
8.33827e-10
7.23202e-10
6.12177e-10
4.97501e-10
3.80505e-10
2.59619e-10
1.97601e-10
1.3351e-10
6.78085e-11
0
)


113
(
0
2.80493e-10
5.38904e-10
7.79213e-10
1.00632e-09
1.22216e-09
1.42829e-09
1.6261e-09
1.81673e-09
2.00105e-09
2.17973e-09
2.35328e-09
2.52205e-09
2.68631e-09
2.84625e-09
3.00172e-09
3.15256e-09
3.29935e-09
3.4421e-09
3.5808e-09
3.71542e-09
3.84591e-09
3.97222e-09
4.09364e-09
4.21078e-09
4.32359e-09
4.43199e-09
4.53592e-09
4.63531e-09
4.7301e-09
4.82022e-09
4.90562e-09
4.98624e-09
5.06203e-09
5.13294e-09
5.19882e-09
5.25977e-09
5.31579e-09
5.36686e-09
5.41296e-09
5.45409e-09
5.49007e-09
5.52099e-09
5.5469e-09
5.56783e-09
5.5838e-09
5.59482e-09
5.60094e-09
5.60181e-09
5.59755e-09
5.58843e-09
5.57444e-09
5.55572e-09
5.53237e-09
5.50454e-09
5.471e-09
5.43276e-09
5.39026e-09
5.34371e-09
5.29173e-09
5.23503e-09
5.17466e-09
5.11007e-09
5.03989e-09
4.9665e-09
4.88916e-09
4.80646e-09
4.7211e-09
4.63104e-09
4.537e-09
4.44065e-09
4.33834e-09
4.23427e-09
4.12568e-09
4.01413e-09
3.89967e-09
3.78112e-09
3.661e-09
3.53595e-09
3.41003e-09
3.27935e-09
3.14755e-09
3.012e-09
2.87467e-09
2.73449e-09
2.59185e-09
2.44722e-09
2.29929e-09
2.15026e-09
1.99676e-09
1.8418e-09
1.76261e-09
1.68342e-09
1.60327e-09
1.52137e-09
1.43947e-09
1.35655e-09
1.27153e-09
1.18651e-09
1.09955e-09
1.01092e-09
9.22136e-10
8.29399e-10
7.36663e-10
6.40091e-10
5.42815e-10
4.40927e-10
3.36736e-10
2.2895e-10
1.73746e-10
1.17007e-10
5.91754e-11
0
)


113
(
0
1.50903e-10
2.93566e-10
4.28464e-10
5.56999e-10
6.79534e-10
7.96414e-10
9.08043e-10
1.01483e-09
1.11714e-09
1.21531e-09
1.30962e-09
1.40029e-09
1.48752e-09
1.57148e-09
1.6521e-09
1.72937e-09
1.80376e-09
1.87538e-09
1.94431e-09
2.01059e-09
2.0743e-09
2.13546e-09
2.19377e-09
2.24966e-09
2.30316e-09
2.35431e-09
2.40312e-09
2.44962e-09
2.49382e-09
2.53573e-09
2.57537e-09
2.61275e-09
2.64789e-09
2.68078e-09
2.7114e-09
2.7398e-09
2.76601e-09
2.79004e-09
2.8119e-09
2.83159e-09
2.84906e-09
2.86434e-09
2.87747e-09
2.88847e-09
2.89734e-09
2.9041e-09
2.90876e-09
2.91117e-09
2.91138e-09
2.90951e-09
2.90554e-09
2.89953e-09
2.8915e-09
2.88153e-09
2.86905e-09
2.8545e-09
2.83806e-09
2.81981e-09
2.79911e-09
2.77626e-09
2.75171e-09
2.7252e-09
2.69606e-09
2.66537e-09
2.63278e-09
2.59753e-09
2.56094e-09
2.52195e-09
2.48085e-09
2.43854e-09
2.39293e-09
2.34631e-09
2.29706e-09
2.24599e-09
2.19313e-09
2.13758e-09
2.08099e-09
2.02089e-09
1.96014e-09
1.89569e-09
1.83028e-09
1.76167e-09
1.69138e-09
1.61843e-09
1.54294e-09
1.46542e-09
1.38429e-09
1.30197e-09
1.21463e-09
1.12567e-09
1.0793e-09
1.03293e-09
9.85571e-10
9.36403e-10
8.87236e-10
8.3712e-10
7.85043e-10
7.32967e-10
6.79292e-10
6.24254e-10
5.69104e-10
5.11129e-10
4.53155e-10
3.9279e-10
3.31989e-10
2.68656e-10
2.04189e-10
1.38014e-10
1.04339e-10
7.00207e-11
3.52677e-11
0
)


113
(
0
1.24831e-11
2.46593e-11
3.65168e-11
4.80897e-11
5.93726e-11
7.03611e-11
8.10558e-11
9.14604e-11
1.0158e-10
1.11421e-10
1.20988e-10
1.30285e-10
1.39316e-10
1.48086e-10
1.56576e-10
1.64777e-10
1.72722e-10
1.80414e-10
1.87854e-10
1.95044e-10
2.01985e-10
2.08677e-10
2.15083e-10
2.21246e-10
2.27166e-10
2.32844e-10
2.38281e-10
2.43478e-10
2.48434e-10
2.53152e-10
2.57631e-10
2.61873e-10
2.65877e-10
2.69645e-10
2.73173e-10
2.76466e-10
2.79528e-10
2.82359e-10
2.84961e-10
2.87333e-10
2.8947e-10
2.91376e-10
2.93055e-10
2.94507e-10
2.95734e-10
2.96736e-10
2.97516e-10
2.98056e-10
2.98362e-10
2.98445e-10
2.98304e-10
2.97942e-10
2.97365e-10
2.96576e-10
2.95516e-10
2.9423e-10
2.92736e-10
2.91044e-10
2.89081e-10
2.8688e-10
2.84488e-10
2.81878e-10
2.7897e-10
2.75886e-10
2.72586e-10
2.6898e-10
2.65221e-10
2.61183e-10
2.569e-10
2.52476e-10
2.47665e-10
2.42735e-10
2.37496e-10
2.32043e-10
2.26378e-10
2.20397e-10
2.14295e-10
2.07783e-10
2.01196e-10
1.94185e-10
1.87066e-10
1.79587e-10
1.71927e-10
1.63977e-10
1.55765e-10
1.47342e-10
1.38565e-10
1.2967e-10
1.20316e-10
1.10824e-10
1.05918e-10
1.01013e-10
9.60296e-11
9.09069e-11
8.57841e-11
8.05946e-11
7.52671e-11
6.99395e-11
6.45099e-11
5.89934e-11
5.34704e-11
4.7784e-11
4.20977e-11
3.62854e-11
3.04503e-11
2.44925e-11
1.84837e-11
1.23997e-11
9.33282e-12
6.23981e-12
3.12976e-12
0
)

)


10
(

113
(
0
3.13773e-11
8.23846e-11
1.60079e-10
2.76153e-10
4.59387e-10
7.5212e-10
1.18604e-09
1.75703e-09
2.39522e-09
3.03982e-09
3.63083e-09
4.1425e-09
4.57462e-09
4.92077e-09
5.25e-09
5.56e-09
5.85077e-09
6.13e-09
6.43e-09
6.72308e-09
7.045e-09
7.4e-09
7.77385e-09
8.14308e-09
8.585e-09
9.07e-09
9.60333e-09
1.0225e-08
1.1e-08
1.2e-08
1.35727e-08
1.57667e-08
1.885e-08
2.34364e-08
3.03455e-08
3.97818e-08
5.19636e-08
6.66e-08
8.25091e-08
9.71091e-08
1.096e-07
1.16364e-07
1.166e-07
1.11545e-07
1.02618e-07
9.11182e-08
7.92333e-08
6.82833e-08
5.82e-08
5.05077e-08
4.33583e-08
3.71692e-08
3.19429e-08
2.76571e-08
2.37714e-08
2.01857e-08
1.69e-08
1.43e-08
1.19625e-08
9.8875e-09
8.18375e-09
6.63375e-09
5.34625e-09
4.33412e-09
3.44e-09
2.83444e-09
2.26556e-09
1.84333e-09
1.47667e-09
1.19333e-09
9.70421e-10
7.87789e-10
6.49368e-10
5.29895e-10
4.46e-10
3.71e-10
3.164e-10
2.669e-10
2.302e-10
1.967e-10
1.712e-10
1.477e-10
1.27842e-10
1.08895e-10
9.4805e-11
8.1255e-11
6.93e-11
5.78389e-11
4.92278e-11
4.12941e-11
3.81176e-11
3.49412e-11
3.19125e-11
2.9475e-11
2.70375e-11
2.46e-11
2.26333e-11
2.06667e-11
1.87e-11
1.67417e-11
1.47833e-11
1.29636e-11
1.12364e-11
9.51778e-12
7.81222e-12
6.12286e-12
4.49333e-12
3.06e-12
2.31625e-12
1.48e-12
7.2925e-13
0
)


113
(
0
4.92428e-11
1.34845e-10
2.70876e-10
4.67222e-10
7.34903e-10
1.0758e-09
1.48074e-09
1.93226e-09
2.4099e-09
2.89525e-09
3.37393e-09
3.83667e-09
4.2774e-09
4.69002e-09
5.08094e-09
5.45685e-09
5.82518e-09
6.1932e-09
6.57451e-09
6.99048e-09
7.45282e-09
7.98714e-09
8.62261e-09
9.40086e-09
1.04072e-08
1.16801e-08
1.32793e-08
1.52687e-08
1.77141e-08
2.07514e-08
2.44112e-08
2.87071e-08
3.35582e-08
3.88879e-08
4.46154e-08
5.05694e-08
5.65298e-08
6.22557e-08
6.74162e-08
7.17944e-08
7.52184e-08
7.74519e-08
7.85022e-08
7.81981e-08
7.67043e-08
7.41287e-08
7.05976e-08
6.63353e-08
6.15177e-08
5.62944e-08
5.09942e-08
4.57354e-08
4.06175e-08
3.5767e-08
3.13135e-08
2.71789e-08
2.33738e-08
2.01385e-08
1.71906e-08
1.45299e-08
1.23401e-08
1.03369e-08
8.64719e-09
7.22663e-09
5.92143e-09
4.94635e-09
4.02475e-09
3.31706e-09
2.69125e-09
2.18823e-09
1.77858e-09
1.43116e-09
1.16422e-09
9.31771e-10
7.64222e-10
6.12897e-10
5.05346e-10
4.08738e-10
3.3988e-10
2.7796e-10
2.33276e-10
1.92901e-10
1.63054e-10
1.3584e-10
1.15902e-10
9.6774e-11
8.23546e-11
6.88014e-11
5.83351e-11
4.86144e-11
4.4624e-11
4.06336e-11
3.68192e-11
3.37089e-11
3.05987e-11
2.74884e-11
2.49783e-11
2.24682e-11
1.99581e-11
1.78173e-11
1.56765e-11
1.36699e-11
1.17528e-11
9.89343e-12
8.12068e-12