/*--------------------------------*- C++ -*----------------------------------*\
| =========                 |                                                 |
| \\      /  F ield         | OpenFOAM: The Open Source CFD Toolbox           |
|  \\    /   O peration     | Version:  2.3.0                                 |
|   \\  /    A nd           | Web:      www.OpenFOAM.org                      |
|    \\/     M anipulation  |                                                 |
\*---------------------------------------------------------------------------*/
FoamFile
{
    version     2.0;
    format      ascii;
    class       dictionary;
    location    "constant";
    object      N2;
}
// * * * * * * * * * * * * * * * * * * * * * * * * * * * * * * * * * * * * * //

N2_table
13
(

10
(

113
(
0.767
0.765
0.762855
0.76171
0.760491
0.758881
0.758087
0.756701
0.755283
0.753954
0.753291
0.752282
0.751
0.749742
0.748745
0.748124
0.747018
0.745793
0.744573
0.74335
0.742123
0.741451
0.740679
0.739444
0.73821
0.736975
0.735733
0.734745
0.734124
0.732994
0.731737
0.730487
0.729616
0.728975
0.727717
0.726728
0.726095
0.724924
0.723658
0.722392
0.721561
0.720851
0.719609
0.718389
0.717192
0.716029
0.714816
0.71314
0.711654
0.710573
0.709497
0.708428
0.707062
0.7055
0.70431
0.703294
0.701946
0.70046
0.699333
0.698367
0.697114
0.695686
0.694271
0.692869
0.691648
0.690722
0.689697
0.688321
0.686945
0.685582
0.684218
0.68324
0.682335
0.681149
0.679797
0.678451
0.677112
0.675774
0.674447
0.673119
0.671797
0.670476
0.66915
0.667823
0.666489
0.665143
0.663794
0.662417
0.661041
0.660072
0.659115
0.658418
0.657653
0.656888
0.656122
0.655528
0.654966
0.654404
0.653823
0.65319
0.652557
0.651955
0.651582
0.651209
0.650796
0.650333
0.649827
0.64921
0.648411
0.647943
0.647229
0.647
0.647
)


113
(
0.767
0.765133
0.763394
0.761897
0.760518
0.759211
0.757961
0.756752
0.755569
0.754409
0.753282
0.752172
0.751075
0.749995
0.748918
0.747845
0.746773
0.745701
0.744629
0.743555
0.74248
0.741408
0.740335
0.739263
0.738194
0.737127
0.736067
0.735011
0.73396
0.732915
0.731872
0.730836
0.729802
0.728769
0.727733
0.726694
0.725649
0.724592
0.723527
0.722446
0.721346
0.720233
0.719093
0.717939
0.716772
0.715578
0.714376
0.713156
0.711929
0.710689
0.709445
0.708196
0.706943
0.705689
0.704435
0.70318
0.701926
0.700671
0.699417
0.698164
0.696913
0.695665
0.694419
0.693176
0.691934
0.690697
0.68946
0.688226
0.686992
0.685758
0.684523
0.683282
0.682039
0.680786
0.679526
0.678257
0.676976
0.675691
0.674389
0.673086
0.671773
0.670458
0.669143
0.667828
0.666518
0.665216
0.663916
0.662635
0.661353
0.66009
0.658828
0.658206
0.657587
0.656968
0.656349
0.65575
0.655155
0.654561
0.653976
0.653417
0.652857
0.6523
0.651759
0.651218
0.650662
0.650087
0.649494
0.648853
0.648191
0.647857
0.647541
0.647252
0.647
)


113
(
0.767
0.76535
0.763812
0.762339
0.760937
0.759594
0.758278
0.757042
0.755838
0.754657
0.753512
0.75238
0.751256
0.750143
0.749038
0.747946
0.746854
0.745764
0.744684
0.743607
0.742532
0.741461
0.74039
0.739317
0.738249
0.737182
0.736114
0.735045
0.733975
0.732904
0.731832
0.730754
0.729673
0.72859
0.727499
0.726405
0.725308
0.7242
0.723088
0.721968
0.720843
0.719713
0.718568
0.717417
0.716262
0.715093
0.71392
0.712741
0.711556
0.710359
0.709159
0.707956
0.706744
0.705525
0.704304
0.703081
0.701853
0.700624
0.699388
0.69815
0.696909
0.695666
0.694423
0.69318
0.691935
0.690686
0.689436
0.688182
0.686928
0.685671
0.684413
0.683151
0.681889
0.680623
0.679355
0.678086
0.676813
0.67554
0.674261
0.672982
0.671702
0.670422
0.669142
0.667862
0.666585
0.665312
0.664041
0.662781
0.661521
0.660281
0.659042
0.658431
0.657822
0.657213
0.656604
0.656002
0.6554
0.654799
0.654196
0.653589
0.652981
0.652375
0.651774
0.651173
0.650571
0.649967
0.649365
0.648766
0.648179
0.647889
0.647607
0.647321
0.647
)


113
(
0.767
0.765425
0.76405
0.762701
0.761367
0.760056
0.758773
0.757523
0.756293
0.755081
0.753895
0.752723
0.751561
0.750378
0.749209
0.748059
0.746936
0.745821
0.744712
0.743614
0.742526
0.741444
0.74036
0.739264
0.738168
0.737072
0.735982
0.734889
0.733792
0.732692
0.731591
0.730487
0.729383
0.728279
0.72716
0.72604
0.724918
0.723792
0.722664
0.721528
0.720387
0.719243
0.718099
0.716947
0.71579
0.714626
0.713459
0.712283
0.711106
0.709926
0.708745
0.707563
0.706369
0.705166
0.703964
0.702761
0.701549
0.700334
0.699117
0.697899
0.696674
0.695443
0.694213
0.692984
0.691749
0.690506
0.689262
0.688013
0.686763
0.68552
0.684277
0.68303
0.681782
0.680526
0.679266
0.678008
0.676755
0.675501
0.674248
0.672996
0.671733
0.67047
0.669219
0.667975
0.666725
0.665464
0.664202
0.662935
0.661667
0.660426
0.659185
0.658567
0.65795
0.657333
0.656716
0.6561
0.655486
0.654871
0.654257
0.653646
0.653034
0.652423
0.651817
0.651211
0.650611
0.650017
0.649428
0.648848
0.648269
0.647978
0.647676
0.647357
0.647
)


113
(
0.767
0.765449
0.764121
0.762859
0.761613
0.760372
0.759135
0.757906
0.756685
0.755471
0.754271
0.753079
0.751893
0.75072
0.749553
0.748392
0.747238
0.746088
0.744944
0.743803
0.742665
0.741531
0.740397
0.739266
0.7381
0.736916
0.73575
0.734595
0.733456
0.732304
0.731153
0.730014
0.728875
0.727735
0.72661
0.725478
0.724338
0.723208
0.722076
0.720935
0.719799
0.718665
0.717519
0.716372
0.715224
0.714068
0.712909
0.711736
0.710567
0.709407
0.708245
0.707081
0.705911
0.704736
0.703557
0.702375
0.701179
0.699977
0.698786
0.6976
0.69639
0.695164
0.693958
0.692769
0.691568
0.690346
0.689126
0.687915
0.686703
0.685476
0.68425
0.682977
0.681695
0.680448
0.679221
0.677967
0.676676
0.675393
0.674151
0.672908
0.671666
0.670423
0.66918
0.667937
0.666695
0.665453
0.664211
0.66297
0.661729
0.660491
0.659252
0.658635
0.658018
0.657401
0.656785
0.656172
0.65556
0.654948
0.654338
0.653734
0.65313
0.652528
0.651935
0.651342
0.650752
0.650166
0.649578
0.648985
0.648374
0.648062
0.647729
0.647379
0.647
)


113
(
0.767
0.765456
0.764107
0.762853
0.761638
0.760443
0.759255
0.75807
0.756885
0.7557
0.754515
0.753331
0.752147
0.750967
0.749788
0.748612
0.747439
0.746268
0.7451
0.743935
0.742772
0.741613
0.740455
0.7393
0.738146
0.736994
0.735845
0.734696
0.733549
0.732404
0.73126
0.730117
0.728976
0.727835
0.726664
0.725506
0.724365
0.723225
0.722087
0.72095
0.719816
0.718682
0.717551
0.71658
0.715761
0.714453
0.713054
0.71168
0.710314
0.708967
0.707626
0.706293
0.704953
0.703607
0.702245
0.700875
0.699998
0.699322
0.698285
0.697084
0.695881
0.694676
0.69347
0.692262
0.691052
0.689841
0.688616
0.687342
0.686071
0.684871
0.683671
0.682466
0.681259
0.680049
0.678837
0.677623
0.676407
0.675189
0.673969
0.672748
0.671525
0.670301
0.669076
0.667851
0.666625
0.6654
0.664175
0.662952
0.661729
0.660513
0.659296
0.658692
0.658089
0.657486
0.656883
0.656286
0.655691
0.655095
0.654501
0.653911
0.653321
0.652731
0.652141
0.651552
0.650956
0.650355
0.649745
0.649115
0.648458
0.648121
0.647763
0.647392
0.647
)


113
(
0.767
0.765464
0.764077
0.762787
0.761554
0.760358
0.759188
0.758034
0.756888
0.755746
0.754609
0.753473
0.752338
0.751203
0.750069
0.748935
0.747803
0.746671
0.745541
0.744412
0.743285
0.742162
0.740935
0.73941
0.738108
0.736933
0.735757
0.734581
0.733405
0.732228
0.731052
0.729875
0.728697
0.72752
0.726342
0.725164
0.723986
0.722807
0.721627
0.720447
0.719267
0.718086
0.716904
0.715722
0.714539
0.713355
0.712171
0.710985
0.709799
0.708612
0.707424
0.706235
0.705045
0.703855
0.702663
0.701471
0.700277
0.699082
0.697887
0.69669
0.695493
0.694294
0.693095
0.691894
0.690693
0.689491
0.688288
0.687083
0.685879
0.684673
0.683467
0.68226
0.681053
0.679845
0.678636
0.677428
0.67622
0.67497
0.673516
0.672062
0.67088
0.669726
0.668569
0.667411
0.666253
0.665095
0.663937
0.662781
0.661625
0.660472
0.659319
0.658744
0.658169
0.657594
0.657018
0.656442
0.655865
0.655288
0.654708
0.654124
0.653539
0.652952
0.65235
0.651748
0.651133
0.650503
0.649863
0.649196
0.648502
0.648147
0.647775
0.647395
0.647
)


113
(
0.767
0.76544
0.76398
0.7626
0.761274
0.759992
0.758746
0.75753
0.75633
0.755143
0.753973
0.752808
0.751649
0.750496
0.749344
0.748194
0.747044
0.745894
0.744743
0.743592
0.742439
0.741283
0.740127
0.738968
0.737807
0.736645
0.73548
0.734314
0.733146
0.731976
0.730804
0.729631
0.728456
0.72728
0.726102
0.724923
0.723743
0.722562
0.72138
0.720196
0.719012
0.717827
0.716641
0.715455
0.714268
0.71308
0.711892
0.710702
0.709513
0.708323
0.707133
0.705942
0.704751
0.70356
0.702369
0.701177
0.699986
0.698794
0.697602
0.696411
0.695219
0.694028
0.692837
0.691646
0.690456
0.689266
0.688077
0.686889
0.685701
0.684515
0.683329
0.682146
0.680963
0.679782
0.678602
0.677424
0.676249
0.675074
0.673903
0.672732
0.671565
0.670399
0.669236
0.668074
0.666913
0.665754
0.664595
0.663436
0.662277
0.661113
0.659948
0.659361
0.658772
0.658182
0.657593
0.656994
0.656392
0.655791
0.655184
0.654563
0.653942
0.653318
0.652671
0.652024
0.651362
0.650683
0.649995
0.649281
0.648547
0.648174
0.64779
0.647399
0.647
)


113
(
0.767
0.765425
0.763904
0.762433
0.761003
0.759608
0.758247
0.756919
0.755612
0.754323
0.753061
0.751814
0.750577
0.749361
0.748152
0.746953
0.745766
0.744584
0.743412
0.742244
0.74108
0.739924
0.738769
0.737619
0.736472
0.735326
0.734183
0.733042
0.731902
0.730763
0.729625
0.728488
0.727352
0.726215
0.72508
0.723944
0.722808
0.721672
0.720537
0.719401
0.718265
0.717129
0.715992
0.714856
0.713719
0.712582
0.711445
0.710308
0.70917
0.708033
0.706896
0.705758
0.704621
0.703483
0.702346
0.701209
0.700071
0.698934
0.697798
0.696661
0.695525
0.694388
0.693252
0.692116
0.690981
0.689845
0.688709
0.687574
0.686438
0.685302
0.684166
0.683029
0.681892
0.680753
0.679614
0.678473
0.677331
0.676187
0.675039
0.673891
0.672736
0.67158
0.670416
0.669249
0.668076
0.666893
0.665707
0.664503
0.663299
0.662068
0.660837
0.660208
0.659576
0.658943
0.65831
0.65766
0.657007
0.656353
0.655693
0.655017
0.65434
0.65366
0.652958
0.652256
0.651543
0.650815
0.650082
0.649331
0.648569
0.648184
0.647793
0.647398
0.647
)


113
(
0.767
0.765678
0.764364
0.763058
0.761758
0.760466
0.75918
0.757903
0.756631
0.755364
0.754105
0.752852
0.751602
0.750361
0.749124
0.747892
0.746667
0.745444
0.744228
0.743015
0.741807
0.740604
0.739404
0.738209
0.737017
0.735828
0.734645
0.733463
0.732285
0.73111
0.729938
0.728769
0.727602
0.726437
0.725276
0.724117
0.722959
0.721804
0.72065
0.719498
0.718347
0.717198
0.71605
0.714903
0.713757
0.712613
0.711468
0.710325
0.709182
0.708039
0.706897
0.705754
0.704612
0.703469
0.702326
0.701183
0.700039
0.698895
0.697749
0.696603
0.695455
0.694307
0.693156
0.692005
0.690852
0.689696
0.68854
0.687381
0.686221
0.685056
0.683891
0.682722
0.681551
0.680376
0.679199
0.678019
0.676835
0.675649
0.674457
0.673264
0.672063
0.670862
0.669654
0.668443
0.667227
0.666005
0.664782
0.663548
0.662315
0.661071
0.659826
0.659199
0.658571
0.657942
0.657314
0.656681
0.656046
0.655412
0.654776
0.654137
0.653497
0.652857
0.652212
0.651567
0.65092
0.650271
0.649621
0.648969
0.648314
0.647987
0.647658
0.647329
0.647
)

)


10
(

113
(
0.76707
0.765058
0.763408
0.761947
0.760587
0.759315
0.758097
0.756922
0.755777
0.754649
0.753535
0.752428
0.751322
0.75022
0.749125
0.748025
0.746926
0.745821
0.744722
0.743623
0.742518
0.741415
0.740312
0.739212
0.738112
0.737012
0.735907
0.734803
0.733703
0.732602
0.731501
0.7304
0.729298
0.728205
0.72711
0.726024
0.724944
0.723874
0.72281
0.721755
0.720696
0.719624
0.718538
0.717429
0.716306
0.715164
0.714006
0.712836
0.711662
0.710477
0.709286
0.708092
0.706892
0.705683
0.704463
0.703243
0.702007
0.700762
0.699507
0.698237
0.696956
0.695669
0.694378
0.693076
0.691775
0.690475
0.689174
0.687877
0.686592
0.685312
0.684036
0.682773
0.681512
0.680254
0.679002
0.677757
0.676515
0.675273
0.674034
0.672796
0.671566
0.670336
0.669105
0.667876
0.666648
0.665418
0.664188
0.662959
0.661731
0.660505
0.659282
0.658672
0.658063
0.657453
0.656842
0.656232
0.655622
0.655016
0.654409
0.653802
0.653194
0.652587
0.651983
0.651379
0.650777
0.650175
0.649565
0.648952
0.648328
0.648008
0.647684
0.647349
0.64701
)


113
(
0.76707
0.76521
0.763586
0.762127
0.760763
0.75947
0.758231
0.757033
0.755864
0.754716
0.753583
0.752461
0.751347
0.750237
0.749131
0.748027
0.746925
0.745823
0.744721
0.74362
0.742518
0.741417
0.740315
0.739214
0.738113
0.737013
0.735913
0.734814
0.733715
0.732618
0.731522
0.730428
0.729335
0.728244
0.727153
0.726063
0.724974
0.723883
0.72279
0.721694
0.720594
0.719488
0.718375
0.717255
0.716127
0.714989
0.713843
0.712687
0.711522
0.710347
0.709162
0.707969
0.706767
0.705556
0.704338
0.70311
0.701873
0.70063
0.699381
0.698123
0.69686
0.695592
0.694319
0.693043
0.691765
0.690485
0.689206
0.687927
0.686649
0.685375
0.684103
0.682836
0.681571
0.680311
0.679054
0.677801
0.676553
0.675306
0.674064
0.672823
0.671586
0.67035
0.669117
0.667884
0.666653
0.665424
0.664195
0.662968
0.661741
0.660516
0.659293
0.658682
0.658071
0.65746
0.656851
0.656241
0.655632
0.655024
0.654416
0.653808
0.653201
0.652593
0.651986
0.651378
0.650769
0.650159
0.649546
0.648925
0.648296
0.647979
0.647659
0.64734
0.64701
)


113
(
0.76707
0.765413
0.763915
0.762489
0.761125
0.759806
0.758518
0.757281
0.756078
0.754897
0.753739
0.752594
0.751457
0.750328
0.749204
0.748085
0.746971
0.745859
0.744751
0.743644
0.742538
0.741435
0.740332
0.73923
0.738128
0.737026
0.735925
0.734824
0.733722
0.732619
0.731516
0.730412
0.729306
0.728199
0.72709
0.725979
0.724864
0.723747
0.722627
0.721502
0.720374
0.719242
0.718104
0.716962
0.715814
0.714661
0.713503
0.712338
0.711167
0.70999
0.708807
0.707618
0.706423
0.705222
0.704015
0.702802
0.701584
0.70036
0.699133
0.6979
0.696663
0.695423
0.694179
0.692932
0.691683
0.690431
0.689178
0.687923
0.686668
0.685412
0.684157
0.682901
0.681646
0.680392
0.679139
0.677887
0.676637
0.675387
0.674141
0.672895
0.671652
0.670411
0.669171
0.667934
0.666698
0.665464
0.664232
0.663003
0.661774
0.66055
0.659328
0.658719
0.65811
0.657501
0.656892
0.656282
0.655672
0.655058
0.654444
0.653827
0.653207
0.652588
0.651974
0.651361
0.650745
0.650129
0.649511
0.648895
0.648283
0.64798
0.647678
0.647368
0.64701
)


113
(
0.76707
0.765487
0.764127
0.762795
0.761479
0.760185
0.758916
0.75767
0.756444
0.755237
0.754044
0.752865
0.751684
0.750495
0.749316
0.74816
0.747014
0.745876
0.744754
0.743636
0.742517
0.741407
0.740298
0.739188
0.738074
0.736962
0.735851
0.734736
0.733621
0.732505
0.731387
0.730266
0.729143
0.728019
0.726891
0.725761
0.724628
0.723492
0.722353
0.721211
0.720066
0.718917
0.717764
0.716608
0.715449
0.714286
0.713119
0.711949
0.710774
0.709595
0.708413
0.707228
0.706038
0.704845
0.703648
0.702447
0.701243
0.700036
0.698826
0.697612
0.696395
0.695176
0.693955
0.69273
0.691504
0.690275
0.689045
0.687813
0.68658
0.685345
0.68411
0.682874
0.681638
0.680401
0.679165
0.67793
0.676693
0.675455
0.674222
0.672989
0.671752
0.670517
0.669289
0.668059
0.666823
0.66558
0.664332
0.663076
0.661817
0.660585
0.659353
0.658737
0.658122
0.657506
0.656891
0.656275
0.65566
0.655045
0.654429
0.653814
0.653199
0.652584
0.65197
0.651357
0.650748
0.65014
0.649541
0.648943
0.648344
0.648042
0.647726
0.64739
0.64701
)


113
(
0.76707
0.765508
0.764184
0.762925
0.761683
0.760447
0.759214
0.757987
0.756767
0.755555
0.754351
0.753155
0.751967
0.750786
0.749612
0.748443
0.747279
0.74612
0.744965
0.743812
0.742662
0.741515
0.740369
0.739225
0.738066
0.736864
0.735658
0.734476
0.733311
0.732151
0.731001
0.729869
0.728719
0.727572
0.726428
0.725299
0.724155
0.72301
0.721876
0.720729
0.719581
0.718433
0.717289
0.716136
0.714982
0.713826
0.712668
0.711508
0.710344
0.709178
0.70801
0.706838
0.705664
0.704487
0.703308
0.702125
0.700945
0.69976
0.698571
0.697378
0.696188
0.694995
0.693794
0.692589
0.691387
0.69019
0.688979
0.687768
0.686566
0.685349
0.684125
0.682896
0.681659
0.680404
0.679144
0.677878
0.676624
0.675374
0.674143
0.672913
0.671683
0.670453
0.669222
0.66799
0.666759
0.665527
0.664295
0.663063
0.66183
0.660598
0.659366
0.65875
0.658135
0.65752
0.656905
0.656291
0.655678
0.655067
0.654456
0.653848
0.653243
0.652637
0.652038
0.65144
0.650845
0.650251
0.649654
0.649049
0.648426
0.648104
0.647763
0.647403
0.64701
)


113
(
0.76707
0.765514
0.764162
0.762906
0.76169
0.760493
0.759305
0.758118
0.756931
0.755744
0.754557
0.75337
0.752184
0.751
0.749817
0.748636
0.747458
0.746283
0.74511
0.743939
0.74277
0.741604
0.74044
0.739278
0.738118
0.73696
0.735803
0.734648
0.733494
0.732342
0.731192
0.730043
0.728895
0.727748
0.726582
0.725435
0.72429
0.723147
0.722005
0.720864
0.719726
0.71859
0.717457
0.716402
0.715742
0.714298
0.712934
0.711519
0.710197
0.708841
0.70749
0.706135
0.704807
0.703501
0.702166
0.700764
0.69938
0.698525
0.698141
0.696944
0.695746
0.694547
0.693346
0.692144
0.69094
0.689736
0.688457
0.68719
0.686002
0.68481
0.683616
0.682418
0.681219
0.680017
0.678812
0.677606
0.676397
0.675187
0.673975
0.672761
0.671546
0.67033
0.669112
0.667894
0.666674
0.665455
0.664236
0.663018
0.6618
0.660586
0.659374
0.65877
0.658167
0.657564
0.656965
0.656366
0.655768
0.655173
0.654578
0.653986
0.653394
0.652803
0.65221
0.651617
0.651016
0.650414
0.649793
0.649157
0.648493
0.648149
0.647787
0.647409
0.64701
)


113
(
0.76707
0.765523
0.764131
0.762838
0.761601
0.760403
0.75923
0.758072
0.756923
0.75578
0.75464
0.753502
0.752364
0.751227
0.75009
0.748954
0.747819
0.746685
0.745552
0.744421
0.743292
0.742165
0.741041
0.73934
0.73809
0.736911
0.735732
0.734553
0.733374
0.732194
0.731015
0.729835
0.728655
0.727475
0.726295
0.725114
0.723934
0.722753
0.721571
0.72039
0.719208
0.718025
0.716842
0.715659
0.714475
0.713291
0.712106
0.71092
0.709734
0.708547
0.707359
0.706171
0.704982
0.703792
0.702602
0.701411
0.700219
0.699026
0.697833
0.696638
0.695443
0.694247
0.693051
0.691853
0.690655
0.689456
0.688256
0.687056
0.685855
0.684653
0.683451
0.682248
0.681044
0.679841
0.678637
0.677432
0.676228
0.675024
0.673544
0.672065
0.670914
0.669763
0.668609
0.667454
0.666298
0.665143
0.663987
0.662832
0.661678
0.660526
0.659374
0.658799
0.658224
0.657648
0.657072
0.656496
0.655919
0.655339
0.654759
0.654175
0.653587
0.652998
0.652395
0.651793
0.651171
0.650546
0.649893
0.649223
0.648526
0.648166
0.647793
0.647408
0.64701
)


113
(
0.76707
0.765502
0.764037
0.762652
0.761323
0.760039
0.75879
0.757567
0.756366
0.75518
0.754005
0.752838
0.751678
0.750521
0.749368
0.748216
0.747065
0.745913
0.744761
0.743608
0.742453
0.741297
0.740139
0.738979
0.737817
0.736654
0.735488
0.734321
0.733152
0.731981
0.730808
0.729634
0.728459
0.727282
0.726104
0.724924
0.723744
0.722562
0.72138
0.720196
0.719012
0.717827
0.716641
0.715454
0.714267
0.71308
0.711892
0.710703
0.709514
0.708325
0.707135
0.705945
0.704754
0.703564
0.702373
0.701183
0.699992
0.698801
0.69761
0.69642
0.695229
0.694039
0.692849
0.69166
0.690471
0.689282
0.688095
0.686908
0.685721
0.684536
0.683352
0.68217
0.680988
0.679808
0.67863
0.677453
0.676279
0.675106
0.673935
0.672766
0.6716
0.670435
0.669272
0.668111
0.666951
0.665792
0.664634
0.663475
0.662316
0.661152
0.659985
0.659398
0.658811
0.658221
0.657626
0.657031
0.656431
0.655824
0.655216
0.654599
0.653974
0.653348
0.652701
0.652055
0.651386
0.650714
0.650014
0.6493
0.648565
0.648189
0.647803
0.647411
0.64701
)


113
(
0.76707
0.765491
0.763967
0.762495
0.761062
0.759667
0.758304
0.75697
0.755662
0.754377
0.75311
0.751861
0.750627
0.749406
0.748196
0.746997
0.745809
0.744627
0.743453
0.742285
0.741122
0.739963
0.738808
0.737658
0.73651
0.735364
0.734221
0.733079
0.731939
0.7308
0.729662
0.728524
0.727387
0.726251
0.725115
0.723979
0.722843
0.721707
0.720572
0.719436
0.7183
0.717163
0.716027
0.71489
0.713754
0.712617
0.71148
0.710343
0.709205
0.708068
0.706931
0.705793
0.704656
0.703519
0.702381
0.701244
0.700107
0.69897
0.697833
0.696697
0.695561
0.694424
0.693288
0.692153
0.691017
0.689881
0.688746
0.68761
0.686475
0.685339
0.684202
0.683066
0.681928
0.68079
0.67965
0.67851
0.677367
0.676223
0.675075
0.673926
0.672771
0.671614
0.670451
0.669283
0.668109
0.666927
0.665738
0.664535
0.663329
0.6621
0.660863
0.660235
0.659607
0.658974
0.658331
0.657687
0.657038
0.656376
0.655715
0.655043
0.654363
0.653681
0.65298
0.652278
0.651559
0.650837
0.650096
0.649346
0.648582
0.648196
0.647804
0.647409
0.64701
)


113
(
0.76707
0.765747
0.764432
0.763126
0.761826
0.760533
0.759246
0.757967
0.756695
0.755428
0.754168
0.752914
0.751665
0.750422
0.749185
0.747952
0.746725
0.745503
0.744286
0.743073
0.741865
0.74066
0.73946
0.738264
0.737072
0.735883
0.734698
0.733516
0.732338
0.731162
0.72999
0.72882
0.727652
0.726488
0.725325
0.724165
0.723007
0.721851
0.720697
0.719544
0.718393
0.717243
0.716095
0.714948
0.713801
0.712656
0.711511
0.710367
0.709224
0.70808
0.706937
0.705794
0.704651
0.703508
0.702365
0.701221
0.700077
0.698931
0.697786
0.696639
0.69549
0.694341
0.693191
0.692038
0.690885
0.689729
0.688572
0.687412
0.686251
0.685086
0.683921
0.682751
0.68158
0.680404
0.679227
0.678046
0.676861
0.675675
0.674482
0.673288
0.672087
0.670885
0.669677
0.668465
0.667248
0.666027
0.664801
0.663568
0.662334
0.661089
0.659842
0.659215
0.658588
0.65796
0.657328
0.656696
0.656063
0.655427
0.65479
0.654152
0.653511
0.65287
0.652225
0.65158
0.650932
0.650284
0.649633
0.64898
0.648325
0.647997
0.647669
0.64734
0.64701
)

)


10
(

113
(
0.767
0.765
0.763769
0.762342
0.761129
0.759086
0.75804
0.757094
0.756189
0.754626
0.753439
0.752583
0.7515
0.749923
0.749154
0.748333
0.747
0.745692
0.744917
0.744083
0.742615
0.7415
0.740667
0.739692
0.738154
0.73725
0.735833
0.734583
0.73375
0.732833
0.731167
0.730182
0.729333
0.728
0.726636
0.725727
0.724818
0.723818
0.722
0.721091
0.720182
0.7192
0.718273
0.7173
0.716364
0.714909
0.713545
0.712667
0.711667
0.71
0.709231
0.707833
0.706231
0.704857
0.704143
0.702857
0.701429
0.7
0.698667
0.697375
0.696125
0.694875
0.693625
0.692375
0.691176
0.69
0.688889
0.687778
0.686667
0.685333
0.683667
0.682368
0.681316
0.680263
0.679211
0.6778
0.6763
0.6752
0.6742
0.6728
0.6713
0.6702
0.6692
0.668158
0.667105
0.66565
0.66415
0.663
0.661889
0.660778
0.659647
0.659059
0.658471
0.657875
0.65725
0.656625
0.656
0.655333
0.654667
0.654
0.653167
0.652333
0.651727
0.651273
0.650778
0.650222
0.649571
0.648833
0.648
0.648
0.648
0.64725
0.647
)


113
(
0.767
0.76534
0.763806
0.762389
0.761009
0.759674
0.758391
0.757161
0.755971
0.754809
0.753667
0.752539
0.751421
0.750314
0.749214
0.748119
0.747028
0.745938
0.744848
0.743757
0.74266
0.741556
0.740447
0.739333
0.738212
0.737086
0.735955
0.734824
0.733692
0.732559
0.731425
0.730297
0.729173
0.72805
0.72693
0.725815
0.724705
0.723597
0.722492
0.72139
0.720286
0.719179
0.718067
0.716947
0.715817
0.714679
0.713526
0.712359
0.711181
0.709989
0.708774
0.707553
0.706322
0.705082
0.703832
0.702576
0.701317
0.700057
0.698797
0.697539
0.696283
0.695033
0.693785
0.692542
0.691302
0.690064
0.68883
0.687596
0.686363
0.68513
0.683897
0.682664
0.68143
0.680197
0.678965
0.677735
0.676506
0.675281
0.674057
0.67284
0.671623
0.670411
0.669201
0.667992
0.666785
0.665579
0.664374
0.663172
0.66197
0.660762
0.659547
0.658934
0.65832
0.657704
0.657075
0.656447
0.655819
0.65518
0.654541
0.653903
0.653265
0.652628
0.651995
0.651366
0.650741
0.650123
0.64951
0.648896
0.64827
0.64795
0.647629
0.647313
0.647
)


113
(
0.767
0.765478
0.764043
0.762645
0.761295
0.759988
0.75869
0.757436
0.756234
0.755045
0.753877
0.752723
0.751576
0.750435
0.749306
0.748177
0.747059
0.745944
0.744825
0.743711
0.742595
0.741485
0.740373
0.739256
0.738142
0.737029
0.735909
0.734788
0.733669
0.732548
0.731436
0.730306
0.729181
0.728057
0.726931
0.725801
0.724667
0.723532
0.722388
0.721254
0.720114
0.71896
0.717806
0.716656
0.715492
0.714327
0.713155
0.711975
0.710798
0.70961
0.708414
0.707223
0.706023
0.704813
0.703607
0.702388
0.701168
0.699949
0.698726
0.6975
0.696271
0.695038
0.693805
0.692574
0.691339
0.690103
0.68887
0.687637
0.686406
0.685173
0.683936
0.682704
0.681474
0.680248
0.679022
0.677794
0.676565
0.675343
0.674122
0.6729
0.671677
0.670457
0.669238
0.66802
0.666801
0.665582
0.664362
0.66314
0.661916
0.660688
0.659461
0.658848
0.658234
0.65762
0.657002
0.656383
0.655765
0.65514
0.654515
0.65389
0.653261
0.652633
0.652007
0.651383
0.650758
0.650132
0.649506
0.648882
0.648264
0.647961
0.647659
0.647351
0.647
)


113
(
0.767
0.765504
0.764191
0.76289
0.761594
0.760312
0.75905
0.757806
0.756581
0.75537
0.754172
0.752986
0.751799
0.750599
0.749408
0.748239
0.747088
0.745952
0.744823
0.743668
0.742548
0.741436
0.740317
0.739182
0.738051
0.736938
0.735811
0.73468
0.733552
0.732422
0.731284
0.730151
0.729015
0.727887
0.726751
0.7256
0.724459
0.723307
0.722148
0.720998
0.719835
0.718686
0.717527
0.716361
0.715197
0.71402
0.71284
0.711663
0.710477
0.70929
0.708109
0.706934
0.705749
0.704549
0.703336
0.702134
0.700936
0.699744
0.698531
0.697319
0.696107
0.694899
0.69369
0.692481
0.691265
0.690046
0.688815
0.687587
0.686374
0.685164
0.68396
0.682736
0.681497
0.680279
0.67907
0.677846
0.676618
0.6754
0.674185
0.672966
0.671746
0.67052
0.669292
0.668071
0.666852
0.665616
0.664378
0.663123
0.661868
0.660637
0.659405
0.658788
0.658171
0.657554
0.656936
0.656318
0.6557
0.655081
0.654461
0.653842
0.653222
0.652603
0.651984
0.651367
0.650752
0.650141
0.649536
0.648934
0.648335
0.648028
0.647714
0.647377
0.647
)


113
(
0.767
0.765494
0.764204
0.76297
0.761746
0.760522
0.759298
0.758077
0.75686
0.755648
0.754443
0.753244
0.752052
0.750865
0.749684
0.748509
0.747337
0.746169
0.745005
0.743843
0.742684
0.741527
0.740371
0.739214
0.738042
0.736829
0.735609
0.734427
0.733271
0.73208
0.730918
0.729779
0.728614
0.727474
0.726331
0.725161
0.724013
0.722861
0.721723
0.720575
0.719428
0.718263
0.71711
0.71595
0.714812
0.713658
0.712483
0.711305
0.710128
0.708953
0.707792
0.706639
0.705465
0.704272
0.703106
0.701936
0.700753
0.699551
0.698384
0.69721
0.696029
0.694808
0.693604
0.692446
0.691245
0.690025
0.688844
0.68765
0.686408
0.685184
0.683987
0.682769
0.681536
0.680294
0.679047
0.67779
0.676529
0.675301
0.674081
0.672859
0.671637
0.670414
0.66919
0.667965
0.666739
0.665512
0.664285
0.663056
0.661827
0.660597
0.659367
0.658751
0.658136
0.657521
0.656906
0.656292
0.655677
0.655066
0.654455
0.653844
0.653239
0.652633
0.652032
0.651433
0.650836
0.650241
0.649643
0.649039
0.648418
0.648089
0.647752
0.647391
0.647
)


113
(
0.767
0.765479
0.764151
0.762911
0.761709
0.760523
0.759343
0.758162
0.75698
0.755796
0.75461
0.753423
0.752236
0.75105
0.749864
0.748681
0.747499
0.746319
0.74514
0.743964
0.742791
0.741619
0.740449
0.73928
0.738114
0.736949
0.735787
0.734625
0.733465
0.732307
0.73115
0.729995
0.728842
0.72768
0.726519
0.725367
0.724216
0.723068
0.721921
0.720776
0.719634
0.718494
0.717356
0.716222
0.715352
0.714186
0.712783
0.711418
0.710062
0.708731
0.707359
0.706001
0.704681
0.703382
0.70204
0.700627
0.699609
0.699211
0.698017
0.696822
0.695625
0.694428
0.693229
0.69203
0.690829
0.689627
0.688342
0.687077
0.685892
0.684705
0.683515
0.682322
0.681128
0.67993
0.67873
0.677528
0.676324
0.675118
0.673911
0.672701
0.67149
0.670277
0.669064
0.667849
0.666634
0.665417
0.664201
0.662986
0.661771
0.660559
0.659349
0.658746
0.658143
0.657541
0.656943
0.656345
0.655746
0.655153
0.654559
0.653966
0.653375
0.652784
0.652192
0.651599
0.651001
0.650396
0.649778
0.649144
0.648484
0.648133
0.647775
0.647398
0.647
)


113
(
0.767
0.765475
0.764098
0.762815
0.761588
0.760398
0.759232
0.75808
0.756936
0.755797
0.75466
0.753523
0.752387
0.751251
0.750115
0.748978
0.747842
0.746707
0.745573
0.74444
0.743309
0.742181
0.741055
0.739821
0.738146
0.736915
0.735733
0.734551
0.733369
0.732186
0.731004
0.729821
0.728638
0.727455
0.726271
0.725088
0.723904
0.72272
0.721536
0.720352
0.719167
0.717983
0.716797
0.715612
0.714426
0.713239
0.712053
0.710865
0.709677
0.708489
0.7073
0.706111
0.704921
0.70373
0.702539
0.701347
0.700155
0.698962
0.697768
0.696574
0.695379
0.694183
0.692986
0.691789
0.690592
0.689393
0.688194
0.686995
0.685794
0.684594
0.683392
0.68219
0.680988
0.679786
0.678583
0.67738
0.676177
0.674731
0.673224
0.672006
0.670859
0.669709
0.668558
0.667405
0.666252
0.665098
0.663945
0.662792
0.66164
0.66049
0.65934
0.658766
0.658192
0.657617
0.657042
0.656467
0.655892
0.655312
0.654732
0.654153
0.653563
0.652974
0.652375
0.651769
0.651154
0.650524
0.649876
0.64921
0.648516
0.648151
0.647781
0.647397
0.647
)


113
(
0.767
0.765444
0.763989
0.76261
0.761287
0.760008
0.758765
0.757548
0.756351
0.755169
0.753997
0.752833
0.751675
0.750521
0.749369
0.748219
0.747069
0.745918
0.744767
0.743615
0.74246
0.741304
0.740146
0.738986
0.737824
0.73666
0.735494
0.734326
0.733157
0.731985
0.730812
0.729637
0.728461
0.727283
0.726104
0.724923
0.723742
0.722559
0.721376
0.720191
0.719005
0.717819
0.716632
0.715445
0.714257
0.713068
0.711879
0.710689
0.709499
0.708309
0.707118
0.705927
0.704736
0.703544
0.702353
0.701161
0.69997
0.698778
0.697587
0.696395
0.695204
0.694014
0.692823
0.691633
0.690444
0.689255
0.688067
0.686879
0.685693
0.684508
0.683324
0.682141
0.680959
0.679779
0.678601
0.677425
0.676249
0.675077
0.673906
0.672738
0.671571
0.670407
0.669244
0.668083
0.666924
0.665766
0.664608
0.663449
0.66229
0.661127
0.659961
0.659375
0.658788
0.6582
0.657604
0.657008
0.656413
0.655803
0.655193
0.654584
0.653955
0.653327
0.652685
0.652034
0.651372
0.650695
0.65
0.649289
0.648555
0.648175
0.647792
0.6474
0.647
)


113
(
0.767
0.765426
0.763908
0.762439
0.761009
0.759617
0.758258
0.756928
0.755624
0.754341
0.753077
0.75183
0.750598
0.749378
0.748172
0.746976
0.745788
0.744608
0.743434
0.742267
0.741106
0.739949
0.738796
0.737645
0.736498
0.735354
0.734211
0.73307
0.73193
0.730792
0.729654
0.728517
0.727381
0.726245
0.725109
0.723974
0.722838
0.721703
0.720567
0.719431
0.718295
0.717159
0.716022
0.714886
0.713749
0.712612
0.711475
0.710338
0.7092
0.708063
0.706925
0.705788
0.70465
0.703513
0.702375
0.701238
0.700101
0.698963
0.697827
0.69669
0.695553
0.694417
0.69328
0.692144
0.691008
0.689873
0.688737
0.687601
0.686465
0.685329
0.684192
0.683055
0.681918
0.680779
0.679639
0.678498
0.677356
0.67621
0.675064
0.673912
0.67276
0.6716
0.670439
0.66927
0.668098
0.666912
0.665726
0.664522
0.663315
0.662087
0.66085
0.660222
0.659594
0.658962
0.658318
0.657673
0.657028
0.656364
0.6557
0.655035
0.654351
0.653666
0.652969
0.652263
0.651549
0.650823
0.650085