/*--------------------------------*- C++ -*----------------------------------*\
| =========                 |                                                 |
| \\      /  F ield         | OpenFOAM: The Open Source CFD Toolbox           |
|  \\    /   O peration     | Version:  2.3.0                                 |
|   \\  /    A nd           | Web:      www.OpenFOAM.org                      |
|    \\/     M anipulation  |                                                 |
\*---------------------------------------------------------------------------*/
FoamFile
{
    version     2.0;
    format      ascii;
    class       dictionary;
    location    "constant";
    object      NCO;
}
// * * * * * * * * * * * * * * * * * * * * * * * * * * * * * * * * * * * * * //

NCO_table
13
(

10
(

113
(
0
1.27187e-20
1.47299e-19
8.8932e-19
3.37184e-18
9.55643e-18
2.31993e-17
5.28942e-17
1.00699e-16
1.67159e-16
2.83715e-16
4.56333e-16
6.73e-16
1.11136e-15
1.78255e-15
2.78876e-15
5.06117e-15
8.4114e-15
1.54785e-14
2.88472e-14
4.78043e-14
9.26695e-14
1.57049e-13
2.68778e-13
4.63074e-13
7.0895e-13
1.20647e-12
1.9864e-12
3.17273e-12
7.43013e-12
1.82381e-11
5.08006e-11
1.91063e-10
4.16176e-10
1.42498e-09
3.38525e-09
6.60677e-09
1.24751e-08
1.91677e-08
2.68259e-08
3.25841e-08
3.68031e-08
3.59957e-08
3.3218e-08
2.85473e-08
2.38671e-08
1.93313e-08
1.59793e-08
1.29839e-08
1.07461e-08
8.85877e-09
7.36679e-09
6.17312e-09
5.17833e-09
4.41817e-09
3.76843e-09
3.29178e-09
2.88584e-09
2.58667e-09
2.33546e-09
2.14552e-09
1.99314e-09
1.87383e-09
1.78505e-09
1.71065e-09
1.65972e-09
1.61394e-09
1.58642e-09
1.55873e-09
1.52691e-09
1.49509e-09
1.44059e-09
1.38176e-09
1.28054e-09
1.15441e-09
1.01118e-09
8.43321e-10
6.78726e-10
5.30053e-10
3.81381e-10
2.85819e-10
1.95511e-10
1.34766e-10
9.06513e-11
5.6143e-11
3.7309e-11
2.02624e-11
1.3345e-11
6.42752e-12
3.99689e-12
1.70502e-12
1.2115e-12
9.24e-13
6.365e-13
3.49e-13
2.50358e-13
1.8769e-13
1.25021e-13
7.52835e-14
5.87962e-14
4.23089e-14
2.70522e-14
2.08209e-14
1.45896e-14
9.73722e-15
6.64e-15
3.93642e-15
2.24506e-15
1.05243e-15
5.99771e-16
3.21914e-16
1.15457e-16
0
)


113
(
0
6.41088e-19
3.31611e-18
1.10904e-17
2.87878e-17
6.46668e-17
1.36797e-16
3.18299e-16
7.37226e-16
1.48736e-15
3.89183e-15
1.08316e-14
2.13348e-14
7.07339e-14
1.85212e-13
3.93341e-13
1.02595e-12
2.11141e-12
4.88975e-12
1.07684e-11
1.93965e-11
4.17432e-11
7.46447e-11
1.33248e-10
2.37162e-10
3.69089e-10
6.24764e-10
9.62589e-10
1.41863e-09
2.1029e-09
2.91799e-09
4.01063e-09
5.32508e-09
6.78765e-09
8.5591e-09
1.04007e-08
1.23354e-08
1.42294e-08
1.60352e-08
1.76218e-08
1.88541e-08
1.98482e-08
2.02626e-08
2.0316e-08
2.00227e-08
1.92082e-08
1.82468e-08
1.69012e-08
1.54924e-08
1.39495e-08
1.24282e-08
1.09314e-08
9.55494e-09
8.25864e-09
7.14895e-09
6.12707e-09
5.30038e-09
4.55342e-09
3.96728e-09
3.45339e-09
3.05083e-09
2.71651e-09
2.44465e-09
2.23045e-09
2.04437e-09
1.90418e-09
1.77266e-09
1.67187e-09
1.57165e-09
1.48482e-09
1.398e-09
1.30912e-09
1.21985e-09
1.12485e-09
1.02648e-09
9.25573e-10
8.20997e-10
7.17034e-10
6.16068e-10
5.15103e-10
4.28106e-10
3.42492e-10
2.71373e-10
2.08408e-10
1.54213e-10
1.14324e-10
7.71783e-11
5.55717e-11
3.3965e-11
2.34488e-11
1.32757e-11
1.04646e-11
8.37218e-12
6.27974e-12
4.18729e-12
3.20619e-12
2.43678e-12
1.66736e-12
1.04107e-12
7.82798e-13
5.24529e-13
2.87456e-13
2.05816e-13
1.24176e-13
6.69786e-14
4.08893e-14
1.94986e-14
1.01899e-14
4.3771e-15
2.44523e-15
1.365e-15
5.4328e-16
0
)


113
(
0
1.80965e-13
6.0012e-13
1.4848e-12
3.08155e-12
5.72866e-12
1.00585e-11
1.75543e-11
2.8301e-11
4.23625e-11
6.53948e-11
9.59419e-11
1.32394e-10
1.90309e-10
2.6057e-10
3.48598e-10
4.6788e-10
6.02316e-10
7.72592e-10
9.72877e-10
1.19977e-09
1.50305e-09
1.82998e-09
2.20005e-09
2.61166e-09
3.0483e-09
3.5663e-09
4.10975e-09
4.68981e-09
5.30592e-09
5.93639e-09
6.587e-09
7.24386e-09
7.90404e-09
8.5313e-09
9.14083e-09
9.72686e-09
1.02479e-08
1.0733e-08
1.11515e-08
1.14894e-08
1.17762e-08
1.1954e-08
1.20613e-08
1.2101e-08
1.20213e-08
1.19049e-08
1.16756e-08
1.14075e-08
1.10567e-08
1.06591e-08
1.02084e-08
9.71704e-09
9.19846e-09
8.6705e-09
8.13814e-09
7.60393e-09
7.06896e-09
6.5306e-09
5.99071e-09
5.49522e-09
5.02694e-09
4.58323e-09
4.16219e-09
3.76537e-09
3.40806e-09
3.06462e-09
2.77033e-09
2.47825e-09
2.23922e-09
2.00019e-09
1.80094e-09
1.60927e-09
1.44174e-09
1.2884e-09
1.14635e-09
1.02057e-09
8.99034e-10
7.98182e-10
6.97329e-10
6.13299e-10
5.30932e-10
4.58876e-10
3.92619e-10
3.31711e-10
2.79527e-10
2.2918e-10
1.89238e-10
1.49295e-10
1.20404e-10
9.18546e-11
8.0884e-11
7.09568e-11
6.10297e-11
5.11025e-11
4.40498e-11
3.75446e-11
3.10394e-11
2.51911e-11
2.10319e-11
1.68727e-11
1.29078e-11
1.03668e-11
7.82585e-12
5.71456e-12
4.15012e-12
2.74667e-12
1.75718e-12
9.8414e-13
6.60356e-13
4.16955e-13
1.99539e-13
0
)


113
(
0
1.79127e-11
4.01003e-11
6.97247e-11
1.07342e-10
1.53591e-10
2.10106e-10
2.79839e-10
3.60433e-10
4.50978e-10
5.60558e-10
6.82955e-10
8.15421e-10
9.74475e-10
1.14615e-09
1.33597e-09
1.5479e-09
1.7671e-09
1.99479e-09
2.2432e-09
2.50999e-09
2.78726e-09
3.06853e-09
3.35789e-09
3.65046e-09
3.9458e-09
4.28891e-09
4.6124e-09
4.90768e-09
5.22444e-09
5.54355e-09
5.85134e-09
6.14937e-09
6.44058e-09
6.70379e-09
6.95852e-09
7.202e-09
7.40953e-09
7.60181e-09
7.76997e-09
7.91319e-09
8.03993e-09
8.12785e-09
8.19435e-09
8.24029e-09
8.24471e-09
8.23611e-09
8.18618e-09
8.12224e-09
8.02854e-09
7.91074e-09
7.76578e-09
7.60183e-09
7.42524e-09
7.23476e-09
7.03774e-09
6.79604e-09
6.53609e-09
6.27339e-09
6.00945e-09
5.74626e-09
5.48353e-09
5.21232e-09
4.93327e-09
4.65857e-09
4.39096e-09
4.12296e-09
3.85354e-09
3.58543e-09
3.34875e-09
3.11207e-09
2.87111e-09
2.62933e-09
2.41194e-09
2.20888e-09
2.01552e-09
1.83613e-09
1.65988e-09
1.49901e-09
1.33813e-09
1.1987e-09
1.06139e-09
9.40169e-10
8.27987e-10
7.23481e-10
6.31498e-10
5.42065e-10
4.67082e-10
3.921e-10
3.32806e-10
2.73998e-10
2.4951e-10
2.26573e-10
2.03636e-10
1.807e-10
1.62139e-10
1.44412e-10
1.26686e-10
1.10102e-10
9.64567e-11
8.28118e-11
6.95419e-11
5.9023e-11
4.8504e-11
3.90096e-11
3.08192e-11
2.30866e-11
1.65312e-11
1.06228e-11
7.85132e-12
5.26523e-12
2.68364e-12
0
)


113
(
0
7.48873e-11
1.48597e-10
2.28429e-10
3.16018e-10
4.1177e-10
5.16488e-10
6.31205e-10
7.53112e-10
8.81302e-10
1.01996e-09
1.16465e-09
1.31407e-09
1.47344e-09
1.63642e-09
1.80461e-09
1.97876e-09
2.15538e-09
2.33684e-09
2.52042e-09
2.70589e-09
2.8932e-09
3.08072e-09
3.26826e-09
3.45584e-09
3.64363e-09
3.8398e-09
4.02903e-09
4.20829e-09
4.39406e-09
4.57397e-09
4.72572e-09
4.86134e-09
4.98726e-09
5.14347e-09
5.27878e-09
5.3864e-09
5.49329e-09
5.5943e-09
5.67982e-09
5.75368e-09
5.81984e-09
5.86795e-09
5.90715e-09
5.93776e-09
5.952e-09
5.96047e-09
5.94746e-09
5.92976e-09
5.90208e-09
5.85646e-09
5.79058e-09
5.73579e-09
5.68839e-09
5.59948e-09
5.49105e-09
5.38556e-09
5.28129e-09
5.16069e-09
5.03274e-09
4.90191e-09
4.76932e-09
4.63633e-09
4.50297e-09
4.35452e-09
4.18143e-09
4.00963e-09
3.84239e-09
3.67516e-09
3.50819e-09
3.34121e-09
3.17152e-09
3.00132e-09
2.84213e-09
2.68941e-09
2.53049e-09
2.36265e-09
2.19787e-09
2.04803e-09
1.89819e-09
1.75692e-09
1.6165e-09
1.48304e-09
1.3535e-09
1.22847e-09
1.11081e-09
9.94991e-10
8.89682e-10
7.84372e-10
6.91029e-10
5.98056e-10
5.56067e-10
5.15497e-10
4.74927e-10
4.34358e-10
3.98382e-10
3.63282e-10
3.28181e-10
2.94452e-10
2.64246e-10
2.34041e-10
2.04336e-10
1.78306e-10
1.52275e-10
1.27659e-10
1.04843e-10
8.25879e-11
6.17784e-11
4.14579e-11
3.14143e-11
2.1265e-11
1.08866e-11
0
)


113
(
0
1.17981e-10
2.26148e-10
3.31541e-10
4.37564e-10
5.45499e-10
6.56209e-10
7.70329e-10
8.86852e-10
1.00544e-09
1.12713e-09
1.2503e-09
1.37462e-09
1.50072e-09
1.62717e-09
1.75413e-09
1.88105e-09
2.0078e-09
2.13375e-09
2.25874e-09
2.38287e-09
2.50461e-09
2.62518e-09
2.7432e-09
2.85855e-09
2.9723e-09
3.08127e-09
3.18799e-09
3.29145e-09
3.39004e-09
3.48602e-09
3.57677e-09
3.66318e-09
3.74662e-09
3.82097e-09
3.89251e-09
3.96036e-09
4.02121e-09
4.07855e-09
4.12971e-09
4.17492e-09
4.21639e-09
4.2501e-09
4.31161e-09
4.39983e-09
4.4312e-09
4.44992e-09
4.45378e-09
4.4538e-09
4.44566e-09
4.42696e-09
4.39636e-09
4.36211e-09
4.32542e-09
4.28405e-09
4.24048e-09
4.14898e-09
4.03789e-09
3.96024e-09
3.89761e-09
3.8292e-09
3.75724e-09
3.68083e-09
3.60029e-09
3.51682e-09
3.42858e-09
3.33981e-09
3.24917e-09
3.1581e-09
3.05678e-09
2.95546e-09
2.85061e-09
2.74509e-09
2.63763e-09
2.52905e-09
2.41969e-09
2.30923e-09
2.19865e-09
2.08751e-09
1.97637e-09
1.86571e-09
1.75511e-09
1.64561e-09
1.53675e-09
1.42897e-09
1.32298e-09
1.21758e-09
1.11553e-09
1.01348e-09
9.16132e-10
8.18935e-10
7.72435e-10
7.26598e-10
6.80762e-10
6.34925e-10
5.91514e-10
5.48565e-10
5.05616e-10
4.63425e-10
4.23187e-10
3.82948e-10
3.42966e-10
3.04866e-10
2.66766e-10
2.29174e-10
1.92229e-10
1.55268e-10
1.18269e-10
8.05448e-11
6.1432e-11
4.15865e-11
2.12291e-11
0
)


113
(
0
1.21052e-10
2.31218e-10
3.34311e-10
4.33369e-10
5.29791e-10
6.24336e-10
7.17591e-10
8.10166e-10
9.02203e-10
9.93463e-10
1.08422e-09
1.17459e-09
1.26386e-09
1.35255e-09
1.44042e-09
1.5269e-09
1.61268e-09
1.69673e-09
1.77949e-09
1.86113e-09
1.94032e-09
2.01661e-09
2.0854e-09
2.15529e-09
2.22571e-09
2.29238e-09
2.35739e-09
2.42002e-09
2.47925e-09
2.53671e-09
2.59069e-09
2.64188e-09
2.6912e-09
2.7359e-09
2.77853e-09
2.81842e-09
2.85414e-09
2.88777e-09
2.91777e-09
2.94429e-09
2.96863e-09
2.98845e-09
3.00555e-09
3.02003e-09
3.02987e-09
3.03818e-09
3.04139e-09
3.04272e-09
3.04004e-09
3.03455e-09
3.02591e-09
3.01367e-09
2.99904e-09
2.98031e-09
2.95965e-09
2.93473e-09
2.90806e-09
2.87727e-09
2.84462e-09
2.80836e-09
2.76987e-09
2.72843e-09
2.68427e-09
2.63805e-09
2.58846e-09
2.53775e-09
2.48304e-09
2.42814e-09
2.36866e-09
2.30918e-09
2.24603e-09
2.18218e-09
2.11585e-09
2.04808e-09
1.97889e-09
1.90768e-09
1.83704e-09
1.76919e-09
1.70134e-09
1.62432e-09
1.5464e-09
1.4676e-09
1.38831e-09
1.30872e-09
1.22865e-09
1.14855e-09
1.06827e-09
9.88001e-10
9.07992e-10
8.2799e-10
7.88184e-10
7.4844e-10
7.08696e-10
6.68951e-10
6.29366e-10
5.8981e-10
5.50254e-10
5.10664e-10
4.70987e-10
4.3131e-10
3.91552e-10
3.51198e-10
3.10845e-10
2.69888e-10
2.28162e-10
1.85878e-10
1.42163e-10
9.69597e-11
7.38932e-11
4.98847e-11
2.53491e-11
0
)


113
(
0
9.41554e-11
1.81259e-10
2.62483e-10
3.39393e-10
4.1277e-10
4.82926e-10
5.50069e-10
6.15278e-10
6.78855e-10
7.39935e-10
7.99641e-10
8.58268e-10
9.14596e-10
9.7002e-10
1.02414e-09
1.07653e-09
1.12811e-09
1.17788e-09
1.2265e-09
1.27408e-09
1.31964e-09
1.3644e-09
1.40746e-09
1.44903e-09
1.48971e-09
1.52805e-09
1.5654e-09
1.6013e-09
1.63522e-09
1.6681e-09
1.69898e-09
1.72829e-09
1.75653e-09
1.7822e-09
1.80673e-09
1.82974e-09
1.85048e-09
1.87008e-09
1.8877e-09
1.90343e-09
1.91799e-09
1.93011e-09
1.94077e-09
1.95002e-09
1.95676e-09
1.96269e-09
1.96587e-09
1.96802e-09
1.96801e-09
1.96648e-09
1.96322e-09
1.958e-09
1.95147e-09
1.94267e-09
1.9328e-09
1.92054e-09
1.9073e-09
1.89172e-09
1.87509e-09
1.85635e-09
1.83632e-09
1.81455e-09
1.79116e-09
1.76651e-09
1.73981e-09
1.7124e-09
1.68248e-09
1.65243e-09
1.61939e-09
1.58634e-09
1.55078e-09
1.51474e-09
1.47689e-09
1.43799e-09
1.39798e-09
1.35638e-09
1.31433e-09
1.27016e-09
1.22599e-09
1.17962e-09
1.13303e-09
1.08499e-09
1.03613e-09
9.8645e-10
9.35427e-10
8.84086e-10
8.30944e-10
7.77802e-10
7.22543e-10
6.67218e-10
6.38649e-10
6.09794e-10
5.80939e-10
5.52083e-10
5.22074e-10
4.91845e-10
4.61616e-10
4.30932e-10
3.99077e-10
3.67222e-10
3.35139e-10
3.01379e-10
2.6762e-10
2.32932e-10
1.97062e-10
1.60594e-10
1.22588e-10
8.33196e-11
6.33013e-11
4.26001e-11
2.15536e-11
0
)


113
(
0
5.1654e-11
1.00582e-10
1.46906e-10
1.91068e-10
2.33282e-10
2.73546e-10
3.11793e-10
3.48648e-10
3.84302e-10
4.18012e-10
4.50615e-10
4.82347e-10
5.12212e-10
5.41355e-10
5.6946e-10
5.96231e-10
6.22398e-10
6.47244e-10
6.71288e-10
6.94621e-10
7.16645e-10
7.3816e-10
7.58638e-10
7.78251e-10
7.9735e-10
8.15157e-10
8.32435e-10
8.48952e-10
8.64459e-10
8.79453e-10
8.93463e-10
9.06723e-10
9.19477e-10
9.31037e-10
9.42078e-10
9.5243e-10
9.61765e-10
9.70597e-10
9.78558e-10
9.85701e-10
9.92333e-10
9.97914e-10
1.00287e-09
1.00722e-09
1.01051e-09
1.01345e-09
1.01522e-09
1.01656e-09
1.01698e-09
1.01676e-09
1.0158e-09
1.014e-09
1.01165e-09
1.00832e-09
1.00453e-09
9.99709e-10
9.94461e-10
9.88184e-10
9.81444e-10
9.73766e-10
9.65512e-10
9.5646e-10
9.46672e-10
9.36294e-10
9.24955e-10
9.13272e-10
9.0037e-10
8.87404e-10
8.72923e-10
8.58443e-10
8.42621e-10
8.26545e-10
8.09449e-10
7.91755e-10
7.73383e-10
7.54035e-10
7.34397e-10
7.1334e-10
6.92284e-10
6.69605e-10
6.46767e-10
6.22731e-10
5.98021e-10
5.72559e-10
5.4587e-10
5.18863e-10
4.9006e-10
4.61257e-10
4.30257e-10
3.99188e-10
3.82734e-10
3.65989e-10
3.49244e-10
3.325e-10
3.14684e-10
2.96664e-10
2.78645e-10
2.60256e-10
2.40921e-10
2.21586e-10
2.02093e-10
1.81446e-10
1.60798e-10
1.39606e-10
1.17722e-10
9.5535e-11
7.25697e-11
4.90385e-11
3.71028e-11
2.48872e-11
1.25385e-11
0
)


113
(
0
4.33132e-12
8.55808e-12
1.26752e-11
1.66928e-11
2.0614e-11
2.44316e-11
2.81321e-11
3.17457e-11
3.52823e-11
3.86851e-11
4.20056e-11
4.52613e-11
4.83683e-11
5.14142e-11
5.43723e-11
5.72115e-11
5.99958e-11
6.26573e-11
6.52414e-11
6.77569e-11
7.01425e-11
7.24768e-11
7.4706e-11
7.68457e-11
7.89325e-11
8.08842e-11
8.27801e-11
8.45958e-11
8.63044e-11
8.79583e-11
8.95077e-11
9.09769e-11
9.23924e-11
9.36804e-11
9.4913e-11
9.60723e-11
9.71232e-11
9.81206e-11
9.90254e-11
9.98433e-11
1.00607e-10
1.01259e-10
1.01845e-10
1.02368e-10
1.02777e-10
1.03149e-10
1.03398e-10
1.03601e-10
1.03707e-10
1.03743e-10
1.03703e-10
1.03572e-10
1.03382e-10
1.03088e-10
1.02745e-10
1.0229e-10
1.01789e-10
1.01177e-10
1.00514e-10
9.9749e-11
9.89208e-11
9.80046e-11
9.70071e-11
9.59439e-11
9.47735e-11
9.35645e-11
9.22184e-11
9.08651e-11
8.934e-11
8.78149e-11
8.61369e-11
8.44297e-11
8.2606e-11
8.07139e-11
7.87445e-11
7.66638e-11
7.45503e-11
7.22766e-11
7.00029e-11
6.75497e-11
6.50787e-11
6.24793e-11
5.98077e-11
5.70592e-11
5.41852e-11
5.12807e-11
4.82041e-11
4.51274e-11
4.18567e-11
3.858e-11
3.6868e-11
3.51329e-11
3.33977e-11
3.16626e-11
2.98508e-11
2.80245e-11
2.61982e-11
2.43486e-11
2.24389e-11
2.05291e-11
1.86106e-11
1.66271e-11
1.46436e-11
1.26328e-11
1.05873e-11
8.52804e-12
6.43345e-12
4.31516e-12
3.24894e-12
2.17168e-12
1.08938e-12
0
)

)


10
(

113
(
0
4.04322e-19
3.66795e-18
1.96895e-17
6.49162e-17
1.66163e-16
3.55335e-16
6.61322e-16
1.11048e-15
1.73755e-15
2.59701e-15
3.77355e-15
5.40475e-15
7.71975e-15
1.1092e-14
1.63687e-14
2.55254e-14
4.1178e-14
6.83255e-14
1.15877e-13
2.0018e-13
3.52104e-13
6.31142e-13
1.26845e-12
2.71553e-12
6.18816e-12
1.48143e-11
3.65722e-11
9.13714e-11
2.27103e-10
5.53453e-10
1.30778e-09
2.97023e-09
6.40451e-09
1.2969e-08
2.44113e-08
4.16556e-08
6.37606e-08
8.74473e-08
1.07572e-07
1.19063e-07
1.18962e-07
1.09186e-07
9.42762e-08
7.8417e-08
6.41282e-08
5.2455e-08
4.3466e-08
3.69155e-08
3.21609e-08
2.86328e-08
2.59745e-08
2.38996e-08
2.2205e-08
2.07472e-08
1.94325e-08
1.81439e-08
1.68444e-08
1.55141e-08
1.41164e-08
1.26611e-08
1.11748e-08
9.66508e-09
8.19774e-09
6.79431e-09
5.48515e-09
4.37806e-09
3.38008e-09
2.5858e-09
1.95269e-09
1.41303e-09
1.06595e-09
7.609e-10
5.58687e-10
4.00194e-10
2.84726e-10
2.06389e-10
1.42421e-10
1.05185e-10
7.18585e-11
5.35224e-11
3.71772e-11
2.74596e-11
1.9473e-11
1.424e-11
1.03135e-11
7.43903e-12
5.52189e-12
3.92388e-12
3.00913e-12
2.20565e-12
1.93007e-12
1.65448e-12
1.41158e-12
1.2278e-12
1.04402e-12
8.77306e-13
7.45852e-13
6.14399e-13
5.02459e-13
4.07144e-13
3.12903e-13
2.45886e-13
1.78869e-13
1.305e-13
8.5498e-14
5.61186e-14
3.21326e-14
1.55752e-14
9.43611e-15
5.153e-15
1.94737e-15
0
)


113
(
0
8.8589e-18
4.07654e-17
1.21185e-16
2.76439e-16
5.61092e-16
1.09895e-15
2.24734e-15
5.04696e-15
1.24908e-14
3.38154e-14
9.3562e-14
2.50202e-13
6.30614e-13
1.482e-12
3.4169e-12
8.12147e-12
1.81417e-11
3.8172e-11
7.59698e-11
1.43748e-10
2.59991e-10
4.52308e-10
7.89943e-10
1.3223e-09
2.12604e-09
3.29138e-09
4.91605e-09
7.09866e-09
9.93259e-09
1.34945e-08
1.7818e-08
2.28777e-08
2.85802e-08
3.47594e-08
4.11837e-08
4.75308e-08
5.34837e-08
5.87528e-08
6.30298e-08
6.61146e-08
6.78176e-08
6.80733e-08
6.70831e-08
6.49268e-08
6.17676e-08
5.79128e-08
5.36085e-08
4.90336e-08
4.44406e-08
4.00118e-08
3.58723e-08
3.20792e-08
2.86493e-08
2.55777e-08
2.29279e-08
2.05771e-08
1.84604e-08
1.65418e-08
1.48376e-08
1.32756e-08
1.18114e-08
1.04476e-08
9.19981e-09
8.01749e-09
6.91532e-09
5.92819e-09
5.00065e-09
4.18184e-09
3.45953e-09
2.79317e-09
2.27085e-09
1.78863e-09
1.40893e-09
1.08791e-09
8.24646e-10
6.27017e-10
4.54787e-10
3.42825e-10
2.40272e-10
1.78756e-10
1.23537e-10
8.92845e-11
6.12081e-11
4.29562e-11
2.95653e-11
2.00878e-11
1.40422e-11
9.14055e-12
6.59538e-12
4.41461e-12
3.73606e-12
3.05751e-12
2.48529e-12
2.10544e-12
1.72559e-12
1.39612e-12
1.1708e-12
9.45471e-13
7.64306e-13
6.20758e-13
4.7902e-13
3.83085e-13
2.8715e-13
2.16624e-13
1.5067e-13
1.04312e-13
6.47023e-14
3.46942e-14
2.26525e-14
1.33875e-14
5.86317e-15
0
)


113
(
0
8.63455e-13
2.84447e-12
7.00705e-12
1.43534e-11
2.66074e-11
4.67322e-11
7.80949e-11
1.24541e-10
1.9121e-10
2.85571e-10
4.15049e-10
5.86574e-10
8.08583e-10
1.09264e-09
1.46151e-09
1.92515e-09
2.48799e-09
3.16365e-09
3.96398e-09
4.89979e-09
5.98036e-09
7.2098e-09
8.61078e-09
1.01535e-08
1.18413e-08
1.36794e-08
1.56545e-08
1.77414e-08
1.99099e-08
2.21285e-08
2.43723e-08
2.66032e-08
2.87992e-08
3.09248e-08
3.29518e-08
3.48448e-08
3.65575e-08
3.8065e-08
3.9358e-08
4.04002e-08
4.11864e-08
4.16871e-08
4.18783e-08
4.18552e-08
4.15636e-08
4.09849e-08
4.02282e-08
3.92053e-08
3.79651e-08
3.65457e-08
3.49857e-08
3.3331e-08
3.16044e-08
2.98087e-08
2.7956e-08
2.61071e-08
2.42653e-08
2.24373e-08
2.06564e-08
1.89312e-08
1.72594e-08
1.56568e-08
1.41639e-08
1.27399e-08
1.14028e-08
1.01878e-08
9.03324e-09
7.98618e-09
7.02945e-09
6.12509e-09
5.35461e-09
4.62213e-09
3.98707e-09
3.41119e-09
2.89354e-09
2.45241e-09
2.04088e-09
1.71336e-09
1.40027e-09
1.16045e-09
9.35135e-10
7.58093e-10
6.00407e-10
4.73512e-10
3.68143e-10
2.80103e-10
2.14267e-10
1.55833e-10
1.17167e-10
8.28918e-11
7.08118e-11
5.87319e-11
4.82419e-11
4.06277e-11
3.30136e-11
2.63774e-11
2.1763e-11
1.71486e-11
1.35058e-11
1.06907e-11
7.91702e-12
6.19337e-12
4.46972e-12
3.29727e-12
2.22361e-12
1.52665e-12
9.45194e-13
5.20454e-13
3.51735e-13
2.19906e-13
1.05605e-13
0
)


113
(
0
7.01729e-11
1.56588e-10
2.71781e-10
4.17007e-10
5.96347e-10
8.14056e-10
1.07401e-09
1.37956e-09
1.73352e-09
2.13816e-09
2.59528e-09
3.1158e-09
3.70123e-09
4.33179e-09
5.0161e-09
5.75327e-09
6.5583e-09
7.41118e-09
8.30187e-09
9.23881e-09
1.02342e-08
1.1251e-08
1.23e-08
1.33783e-08
1.44843e-08
1.56028e-08
1.67118e-08
1.78041e-08
1.889e-08
1.99731e-08
2.10372e-08
2.20829e-08
2.30563e-08
2.39743e-08
2.48145e-08
2.55783e-08
2.62909e-08
2.69357e-08
2.74923e-08
2.79486e-08
2.83255e-08
2.86036e-08
2.87931e-08
2.88581e-08
2.88647e-08
2.87627e-08
2.85731e-08
2.83168e-08
2.79398e-08
2.74665e-08
2.69091e-08
2.63023e-08
2.56461e-08
2.49085e-08
2.41121e-08
2.32888e-08
2.24274e-08
2.15258e-08
2.05822e-08
1.96114e-08
1.86285e-08
1.76397e-08
1.66597e-08
1.56827e-08
1.47085e-08
1.37467e-08
1.27965e-08
1.18731e-08
1.09837e-08
1.01138e-08
9.2903e-09
8.4857e-09
7.73187e-09
7.01543e-09
6.33578e-09
5.71191e-09
5.10961e-09
4.56015e-09
4.02172e-09
3.55318e-09
3.10296e-09
2.71376e-09
2.3499e-09
2.02637e-09
1.73399e-09
1.46667e-09
1.23265e-09
1.00971e-09
8.37018e-10
6.75702e-10
6.08158e-10
5.40614e-10
4.78449e-10
4.26015e-10
3.73581e-10
3.25056e-10
2.84613e-10
2.4417e-10
2.08748e-10
1.77604e-10
1.46728e-10
1.22655e-10
9.85828e-11
7.9013e-11
6.02562e-11
4.53135e-11
3.17358e-11
2.00315e-11
1.47121e-11
9.78279e-12
4.95078e-12
0
)


113
(
0
2.77916e-10
5.49756e-10
8.4408e-10
1.1661e-09
1.51875e-09
1.90293e-09
2.31808e-09
2.7629e-09
3.23576e-09
3.73497e-09
4.2588e-09
4.80554e-09
5.37349e-09
5.96087e-09
6.56697e-09
7.19007e-09
7.82584e-09
8.47209e-09
9.12655e-09
9.78688e-09
1.04506e-08
1.11153e-08
1.17774e-08
1.24549e-08
1.31239e-08
1.37971e-08
1.44559e-08
1.50704e-08
1.56588e-08
1.62531e-08
1.67865e-08
1.73026e-08
1.78071e-08
1.82783e-08
1.86779e-08
1.90553e-08
1.94295e-08
1.97584e-08
2.00444e-08
2.0265e-08
2.04499e-08
2.06116e-08
2.07238e-08
2.07983e-08
2.08314e-08
2.08066e-08
2.07769e-08
2.06701e-08
2.05544e-08
2.03714e-08
2.01487e-08
1.98947e-08
1.96147e-08
1.93191e-08
1.89728e-08
1.85948e-08
1.81769e-08
1.7726e-08
1.72869e-08
1.6814e-08
1.63124e-08
1.57758e-08
1.52414e-08
1.46928e-08
1.4121e-08
1.35558e-08
1.29894e-08
1.24159e-08
1.18152e-08
1.11988e-08
1.06041e-08
1.00283e-08
9.50625e-09
8.96165e-09
8.39484e-09
7.81584e-09
7.23211e-09
6.71133e-09
6.19908e-09
5.71413e-09
5.2368e-09
4.78482e-09
4.34651e-09
3.92995e-09
3.53376e-09
3.15398e-09
2.80199e-09
2.45927e-09
2.15254e-09
1.85635e-09
1.72051e-09
1.58468e-09
1.45462e-09
1.33501e-09
1.2154e-09
1.10062e-09
9.95847e-10
8.91071e-10
7.93438e-10
7.01888e-10
6.1077e-10
5.30588e-10
4.50405e-10
3.78046e-10
3.071e-10
2.42763e-10
1.80485e-10
1.20699e-10
9.12874e-11
6.17289e-11
3.15444e-11
0
)


113
(
0
4.2812e-10
8.18541e-10
1.1987e-09
1.58063e-09
1.96944e-09
2.36761e-09
2.77585e-09
3.19371e-09
3.62017e-09
4.05394e-09
4.49369e-09
4.93809e-09
5.38586e-09
5.83576e-09
6.28657e-09
6.73669e-09
7.18493e-09
7.63018e-09
8.0714e-09
8.50753e-09
8.93753e-09
9.36035e-09
9.77351e-09
1.01773e-08
1.05707e-08
1.09529e-08
1.13229e-08
1.168e-08
1.20232e-08
1.23519e-08
1.26651e-08
1.29623e-08
1.32416e-08
1.34812e-08
1.37252e-08
1.39509e-08
1.4158e-08
1.43461e-08
1.4515e-08
1.46645e-08
1.47938e-08
1.49031e-08
1.50276e-08
1.53401e-08
1.54211e-08
1.54803e-08
1.55212e-08
1.5503e-08
1.54704e-08
1.53953e-08
1.53073e-08
1.51958e-08
1.50425e-08
1.48389e-08
1.45724e-08
1.44316e-08
1.41344e-08
1.36557e-08
1.3422e-08
1.31724e-08
1.29106e-08
1.26353e-08
1.23431e-08
1.20417e-08
1.17292e-08
1.14323e-08
1.11244e-08
1.07767e-08
1.04214e-08
1.00616e-08
9.69225e-09
9.32057e-09
8.94313e-09
8.56306e-09
8.18041e-09
7.79592e-09
7.41071e-09
7.02569e-09
6.64092e-09
6.25893e-09
5.87827e-09
5.50206e-09
5.1291e-09
4.76131e-09
4.39956e-09
4.04267e-09
3.6956e-09
3.35181e-09
3.02284e-09
2.69882e-09
2.54258e-09
2.38634e-09
2.23314e-09
2.08544e-09
1.93774e-09
1.79279e-09
1.65352e-09
1.51425e-09
1.37914e-09
1.24757e-09
1.11624e-09
9.90898e-10
8.65561e-10
7.43695e-10
6.22445e-10
5.02652e-10
3.82291e-10
2.60288e-10
1.98245e-10
1.34283e-10
6.84956e-11
0
)


113
(
0
4.33013e-10
8.25556e-10
1.19253e-09
1.54489e-09
1.88737e-09
2.22316e-09
2.55441e-09
2.88242e-09
3.20785e-09
3.53098e-09
3.8518e-09
4.17017e-09
4.48584e-09
4.79847e-09
5.10743e-09
5.41196e-09
5.71209e-09
6.00743e-09
6.29757e-09
6.58213e-09
6.86073e-09
7.13297e-09
7.34691e-09
7.59042e-09
7.8318e-09
8.06468e-09
8.28877e-09
8.50373e-09
8.70928e-09
8.90514e-09
9.09106e-09
9.26678e-09
9.43211e-09
9.58683e-09
9.73052e-09
9.8633e-09
9.98512e-09
1.00959e-08
1.01955e-08
1.02838e-08
1.03605e-08
1.04257e-08
1.04795e-08
1.0522e-08
1.05531e-08
1.05729e-08
1.05816e-08
1.05782e-08
1.05632e-08
1.05372e-08
1.05001e-08
1.04524e-08
1.03942e-08
1.0326e-08
1.02451e-08
1.01538e-08
1.00532e-08
9.94374e-09
9.82252e-09
9.69123e-09
9.55213e-09
9.40416e-09
9.24462e-09
9.07853e-09
8.90444e-09
8.7197e-09
8.52979e-09
8.3308e-09
8.12438e-09
7.91364e-09
7.69219e-09
7.4677e-09
7.23547e-09
6.99846e-09
6.75674e-09
6.50894e-09
6.25878e-09
6.03067e-09
5.8015e-09
5.53259e-09
5.26287e-09
4.99046e-09
4.71721e-09
4.44265e-09
4.16764e-09
3.89229e-09
3.6173e-09
3.34243e-09
3.06907e-09
2.79634e-09
2.66072e-09
2.5251e-09
2.38985e-09
2.25527e-09
2.12069e-09
1.98631e-09
1.85234e-09
1.71837e-09
1.58426e-09
1.45001e-09
1.31571e-09
1.17988e-09
1.04405e-09
9.05546e-10
7.66541e-10
6.22954e-10
4.7646e-10
3.25091e-10
2.47433e-10
1.6718e-10
8.49093e-11
0
)


113
(
0
3.322e-10
6.38764e-10
9.24364e-10
1.19472e-09
1.45208e-09
1.6983e-09
1.93498e-09
2.16345e-09
2.38474e-09
2.5996e-09
2.80863e-09
3.01222e-09
3.21069e-09
3.40424e-09
3.59268e-09
3.77584e-09
3.95436e-09
4.12823e-09
4.29743e-09
4.46192e-09
4.62164e-09
4.77649e-09
4.92562e-09
5.06977e-09
5.20882e-09
5.3427e-09
5.47131e-09
5.59455e-09
5.71233e-09
5.82457e-09
5.93119e-09
6.0321e-09
6.12724e-09
6.21654e-09
6.2998e-09
6.37712e-09
6.4485e-09
6.51391e-09
6.57331e-09
6.62668e-09
6.67381e-09
6.71478e-09
6.74965e-09
6.77846e-09
6.8012e-09
6.81789e-09
6.82857e-09
6.83283e-09
6.83077e-09
6.82273e-09
6.80872e-09
6.78885e-09
6.76328e-09
6.73215e-09
6.69397e-09
6.64996e-09
6.60067e-09
6.54634e-09
6.48527e-09
6.41832e-09
6.34678e-09
6.26999e-09
6.18621e-09
6.09842e-09
6.00568e-09
5.90621e-09
5.80342e-09
5.69471e-09
5.58101e-09
5.46439e-09
5.34026e-09
5.21391e-09
5.08185e-09
4.94603e-09
4.80653e-09
4.66185e-09
4.51517e-09
4.36223e-09
4.20816e-09
4.04805e-09
3.88649e-09
3.72015e-09
3.55153e-09
3.37927e-09
3.20385e-09
3.02588e-09
2.84369e-09
2.66009e-09
2.47079e-09
2.27961e-09
2.18185e-09
2.08408e-09
1.9851e-09
1.8839e-09
1.78269e-09
1.68021e-09
1.57507e-09
1.46994e-09
1.36235e-09
1.25267e-09
1.1428e-09
1.02797e-09
9.13138e-10
7.93508e-10
6.72998e-10
5.46725e-10
4.17578e-10
2.83945e-10
2.15494e-10
1.45129e-10
7.34014e-11
0
)


113
(
0
1.80582e-10
3.51403e-10
5.1303e-10
6.67123e-10
8.14111e-10
9.54405e-10
1.08848e-09
1.21683e-09
1.33988e-09
1.45802e-09
1.57159e-09
1.68086e-09
1.78605e-09
1.88737e-09
1.98473e-09
2.07811e-09
2.16808e-09
2.25477e-09
2.33825e-09
2.4186e-09
2.49588e-09
2.57014e-09
2.64099e-09
2.70897e-09
2.77411e-09
2.83644e-09
2.89598e-09
2.95275e-09
3.00677e-09
3.05807e-09
3.10664e-09
3.15251e-09
3.19568e-09
3.23617e-09
3.27392e-09
3.30901e-09
3.34147e-09
3.3713e-09
3.39852e-09
3.42313e-09
3.44505e-09
3.46434e-09
3.48102e-09
3.49514e-09
3.50667e-09
3.51565e-09
3.52209e-09
3.52581e-09
3.52686e-09
3.52537e-09
3.52135e-09
3.51483e-09
3.50588e-09
3.49454e-09
3.48017e-09
3.46327e-09
3.44406e-09
3.42264e-09
3.39824e-09
3.37121e-09
3.3421e-09
3.3106e-09
3.27587e-09
3.23926e-09
3.20031e-09
3.1581e-09
3.11424e-09
3.06745e-09
3.01807e-09
2.96719e-09
2.91226e-09
2.85609e-09
2.79669e-09
2.73504e-09
2.67119e-09
2.60403e-09
2.53558e-09
2.46282e-09
2.38924e-09
2.31111e-09
2.23179e-09
2.14852e-09
2.06318e-09
1.97455e-09
1.88279e-09
1.78853e-09
1.68982e-09
1.58962e-09
1.48323e-09
1.37485e-09
1.31833e-09
1.26181e-09
1.20406e-09
1.14409e-09
1.08411e-09
1.02297e-09
9.59405e-10
8.95845e-10
8.30312e-10
7.63101e-10
6.95752e-10
6.24922e-10
5.54092e-10
4.80319e-10
4.06008e-10
3.28578e-10
2.49754e-10
1.68827e-10
1.2764e-10
8.56608e-11
4.31471e-11
0
)


113
(
0
1.50257e-11
2.96825e-11
4.39562e-11
5.78878e-11
7.14709e-11
8.47e-11
9.75759e-11
1.10103e-10
1.22288e-10
1.34137e-10
1.45656e-10
1.56852e-10
1.67728e-10
1.78289e-10
1.88515e-10
1.98391e-10
2.07961e-10
2.17226e-10
2.26188e-10
2.3485e-10
2.43211e-10
2.51273e-10
2.58991e-10
2.66417e-10
2.7355e-10
2.80393e-10
2.86945e-10
2.93208e-10
2.99182e-10
3.04869e-10
3.10269e-10
3.15382e-10
3.2021e-10
3.24754e-10
3.29008e-10
3.3298e-10
3.36674e-10
3.4009e-10
3.43229e-10
3.46093e-10
3.48673e-10
3.50975e-10
3.53003e-10
3.54758e-10
3.56242e-10
3.57456e-10
3.58401e-10
3.59059e-10
3.59433e-10
3.59539e-10
3.59375e-10
3.58946e-10
3.58256e-10
3.57312e-10
3.56041e-10
3.54497e-10
3.52704e-10
3.50671e-10
3.48312e-10
3.45665e-10
3.4279e-10
3.39651e-10
3.36152e-10
3.32442e-10
3.28471e-10
3.24132e-10
3.19606e-10
3.14746e-10
3.09591e-10
3.04263e-10
2.98471e-10
2.92535e-10
2.86226e-10
2.79659e-10
2.72836e-10
2.65633e-10
2.58282e-10
2.50438e-10
2.42503e-10
2.34056e-10
2.25479e-10
2.16469e-10
2.07239e-10
1.97659e-10
1.87763e-10
1.77613e-10
1.67036e-10
1.56316e-10
1.45042e-10
1.33601e-10
1.27688e-10
1.21776e-10
1.1577e-10
1.09595e-10
1.0342e-10
9.71642e-11
9.0742e-11
8.43199e-11
7.77746e-11
7.11243e-11
6.44662e-11
5.76109e-11
5.07556e-11
4.37483e-11
3.67134e-11
2.95304e-11
2.22859e-11
1.49505e-11
1.12528e-11
7.52348e-12
3.77365e-12
0
)

)


10
(

113
(
0
9.47026e-17
7.81538e-16
3.21789e-15
8.98141e-15
2.04187e-14
4.01e-14
7.05151e-14
1.14465e-13
1.74835e-13
2.59193e-13
3.74083e-13
5.2875e-13
7.40923e-13
1.04015e-12
1.53333e-12
2.335e-12
3.60615e-12
5.5175e-12
9.1925e-12
1.58185e-11
2.825e-11
5.17333e-11
9.33385e-11
1.63031e-10
3.2075e-10
6.27083e-10
1.20583e-09
2.255e-09
4.0725e-09
7.3975e-09
1.40055e-08
2.44667e-08
4.025e-08
6.37182e-08
9.70727e-08
1.38273e-07
1.84273e-07
2.27e-07
2.57909e-07
2.71636e-07
2.66e-07
2.46545e-07
2.19e-07
1.90273e-07
1.63182e-07
1.38636e-07
1.18e-07
1.012e-07
8.72e-08
7.66615e-08
6.67917e-08
5.81538e-08
5.07286e-08
4.43714e-08
3.84143e-08
3.27571e-08
2.74e-08
2.29333e-08
1.89187e-08
1.53562e-08
1.23562e-08
9.64937e-09
7.48062e-09
5.80471e-09
4.34e-09
3.40667e-09
2.54111e-09
1.94667e-09
1.44356e-09
1.07744e-09
8.06895e-10
6.00053e-10
4.53263e-10
3.32211e-10
2.556e-10
1.901e-10
1.47e-10
1.095e-10
8.508e-11
6.393e-11
5.002e-11
3.792e-11
2.96053e-11
2.22368e-11
1.7765e-11
1.3615e-11
1.0685e-11
7.99444e-12
6.23889e-12
4.65529e-12
4.06412e-12
3.47294e-12
2.91937e-12
2.51625e-12
2.11312e-12
1.71e-12
1.44933e-12
1.18867e-12
9.28e-13
7.40083e-13
5.52167e-13
4.10455e-13
2.99545e-13
2.05889e-13
1.38111e-13
8.55429e-14
4.70167e-14
2.41e-14
1.61e-14
8.305e-15
3.1875e-15
0
)


113
(
0
1.18549e-15
5.00045e-15
1.34464e-14
2.87738e-14
5.51945e-14
1.00407e-13
1.79116e-13
3.23813e-13
6.10706e-13
1.19617e-12
2.42495e-12
4.86704e-12
9.57585e-12
1.96129e-11
4.00595e-11
7.88201e-11
1.49722e-10
2.63518e-10
4.70867e-10
8.43941e-10
1.42644e-09
2.32787e-09
3.67033e-09
5.62733e-09
8.53571e-09
1.2499e-08
1.77079e-08
2.43389e-08
3.25395e-08
4.26153e-08
5.44335e-08
6.77946e-08
8.22307e-08
9.73024e-08
1.12485e-07
1.27167e-07
1.40617e-07
1.52158e-07
1.60985e-07
1.66862e-07
1.69701e-07
1.69356e-07
1.66169e-07
1.60156e-07
1.52078e-07
1.42354e-07
1.31457e-07
1.19967e-07
1.08293e-07
9.69204e-08
8.60329e-08
7.58224e-08
6.6311e-08
5.77212e-08
5.00872e-08
4.31419e-08
3.68709e-08
3.16261e-08
2.68612e-08
2.25764e-08
1.90479e-08
1.58173e-08
1.30861e-08
1.07882e-08
8.67599e-09
7.1072e-09
5.62818e-09
4.50824e-09
3.52698e-09
2.75375e-09
2.13804e-09
1.62734e-09
1.24984e-09
9.29439e-10
7.12406e-10
5.21215e-10
3.95812e-10
2.86855e-10
2.16664e-10
1.56166e-10
1.17625e-10
8.45741e-11
6.35592e-11
4.55533e-11
3.48041e-11
2.48612e-11
1.88709e-11
1.35475e-11
1.02743e-11
7.39006e-12
6.4018e-12
5.41355e-12
4.49932e-12
3.88116e-12
3.26301e-12
2.64486e-12
2.24792e-12
1.85099e-12
1.45405e-12
1.19228e-12
9.3051e-13
7.2058e-13
5.45211e-13
3.93405e-13