/*--------------------------------*- C++ -*----------------------------------*\
| =========                 |                                                 |
| \\      /  F ield         | OpenFOAM: The Open Source CFD Toolbox           |
|  \\    /   O peration     | Version:  2.3.0                                 |
|   \\  /    A nd           | Web:      www.OpenFOAM.org                      |
|    \\/     M anipulation  |                                                 |
\*---------------------------------------------------------------------------*/
FoamFile
{
    version     2.0;
    format      ascii;
    class       dictionary;
    location    "constant";
    object      NH;
}
// * * * * * * * * * * * * * * * * * * * * * * * * * * * * * * * * * * * * * //

NH_table
13
(

10
(

113
(
0
6.63583e-20
5.1759e-19
2.6883e-18
1.0243e-17
3.32024e-17
9.78849e-17
3.33022e-16
9.30814e-16
2.00854e-15
5.27344e-15
1.39577e-14
2.69e-14
8.0422e-14
1.96292e-13
4.01882e-13
9.96129e-13
1.91104e-12
3.91713e-12
7.57178e-12
1.26883e-11
2.3572e-11
3.81827e-11
6.15778e-11
9.72593e-11
1.40354e-10
2.08056e-10
2.87472e-10
3.83745e-10
5.00107e-10
6.25925e-10
7.68425e-10
9.45233e-10
1.14893e-09
1.59547e-09
2.4569e-09
3.86829e-09
7.31861e-09
1.21335e-08
1.96652e-08
2.78452e-08
3.55683e-08
3.78043e-08
3.67928e-08
3.26611e-08
2.78728e-08
2.31006e-08
1.94693e-08
1.62389e-08
1.38605e-08
1.18083e-08
1.01238e-08
8.72188e-09
7.50833e-09
6.52284e-09
5.64467e-09
4.95416e-09
4.3403e-09
3.85333e-09
3.42338e-09
3.07695e-09
2.78171e-09
2.53065e-09
2.32037e-09
2.12843e-09
1.96639e-09
1.81073e-09
1.67771e-09
1.54473e-09
1.41291e-09
1.28109e-09
1.13989e-09
9.96905e-10
8.495e-10
6.995e-10
5.58835e-10
4.31603e-10
3.1246e-10
2.32814e-10
1.53168e-10
1.10803e-10
7.21242e-11
4.74106e-11
3.05522e-11
1.76377e-11
1.11578e-11
5.3445e-12
3.3078e-12
1.2711e-12
7.28249e-13
2.31598e-13
1.42065e-13
1.02678e-13
6.32898e-14
2.3902e-14
1.38153e-14
9.30966e-15
4.80404e-15
1.43462e-15
9.86835e-16
5.39051e-16
1.39251e-16
9.13403e-17
4.34299e-17
1.3685e-17
7.06e-18
1.9521e-18
7.45309e-19
1.67584e-19
4.84566e-20
1.79137e-20
2.64333e-21
0
)


113
(
0
8.33318e-18
7.18398e-17
4.01173e-16
1.59307e-15
5.00194e-15
1.38374e-14
4.09407e-14
1.01985e-13
2.04214e-13
4.65049e-13
9.55401e-13
1.62609e-12
3.20668e-12
5.53538e-12
8.94064e-12
1.50663e-11
2.29094e-11
3.5817e-11
5.43233e-11
7.77945e-11
1.17804e-10
1.68076e-10
2.42327e-10
3.533e-10
4.86908e-10
7.17483e-10
1.01185e-09
1.39803e-09
1.96801e-09
2.6481e-09
3.56959e-09
4.69885e-09
5.96779e-09
7.5724e-09
9.28253e-09
1.11325e-08
1.30507e-08
1.49395e-08
1.67164e-08
1.82255e-08
1.95455e-08
2.03609e-08
2.08212e-08
2.09403e-08
2.04878e-08
1.98681e-08
1.87774e-08
1.75792e-08
1.61523e-08
1.46924e-08
1.31951e-08
1.17663e-08
1.03831e-08
9.15165e-09
7.99156e-09
7.01257e-09
6.10756e-09
5.36138e-09
4.68656e-09
4.12909e-09
3.64355e-09
3.22848e-09
2.87845e-09
2.56305e-09
2.30416e-09
2.05809e-09
1.85745e-09
1.65825e-09
1.49338e-09
1.32851e-09
1.18273e-09
1.04057e-09
9.0984e-10
7.85815e-10
6.69751e-10
5.65142e-10
4.64348e-10
3.82182e-10
3.00016e-10
2.39633e-10
1.81404e-10
1.37103e-10
1.00636e-10
7.03961e-11
5.03172e-11
3.18108e-11
2.22148e-11
1.26189e-11
8.45274e-12
4.45455e-12
3.41952e-12
2.68893e-12
1.95834e-12
1.22775e-12
9.13311e-13
6.78143e-13
4.42975e-13
2.54672e-13
1.86882e-13
1.19091e-13
5.73049e-14
3.95531e-14
2.18012e-14
9.91735e-15
5.50184e-15
2.00431e-15
8.67272e-16
2.65615e-16
1.1104e-16
5.25135e-17
1.56961e-17
0
)


113
(
0
2.52581e-13
8.00889e-13
1.89812e-12
3.79749e-12
6.84284e-12
1.16804e-11
1.98606e-11
3.131e-11
4.60292e-11
6.91663e-11
9.98416e-11
1.3644e-10
1.93636e-10
2.62415e-10
3.47862e-10
4.6045e-10
5.88317e-10
7.57651e-10
9.49324e-10
1.1608e-09
1.44911e-09
1.76319e-09
2.12638e-09
2.52322e-09
2.94076e-09
3.44438e-09
3.97483e-09
4.54389e-09
5.15657e-09
5.78661e-09
6.44095e-09
7.11231e-09
7.79403e-09
8.44967e-09
9.09468e-09
9.7256e-09
1.0303e-08
1.08497e-08
1.1339e-08
1.17542e-08
1.21215e-08
1.23826e-08
1.25757e-08
1.27034e-08
1.27065e-08
1.26715e-08
1.25204e-08
1.23229e-08
1.20267e-08
1.16778e-08
1.12697e-08
1.08042e-08
1.03005e-08
9.76676e-09
9.21884e-09
8.66943e-09
8.11942e-09
7.53984e-09
6.94697e-09
6.3973e-09
5.8741e-09
5.3683e-09
4.87853e-09
4.41211e-09
3.98375e-09
3.56981e-09
3.20704e-09
2.84677e-09
2.54662e-09
2.24647e-09
1.99371e-09
1.74996e-09
1.53859e-09
1.34623e-09
1.17007e-09
1.01722e-09
8.70511e-10
7.53721e-10
6.36932e-10
5.46056e-10
4.57743e-10
3.84101e-10
3.18712e-10
2.6034e-10
2.13416e-10
1.68632e-10
1.35968e-10
1.03303e-10
8.13407e-11
5.97089e-11
5.18737e-11
4.49798e-11
3.80859e-11
3.11921e-11
2.65996e-11
2.24456e-11
1.82915e-11
1.45924e-11
1.2063e-11
9.53363e-12
7.13302e-12
5.67677e-12
4.22052e-12
3.02869e-12
2.1734e-12
1.41185e-12
8.91375e-13
4.91494e-13
3.26397e-13
2.04785e-13
9.71903e-14
0
)


113
(
0
1.76488e-11
3.94775e-11
6.85964e-11
1.05556e-10
1.5099e-10
2.06515e-10
2.75062e-10
3.54338e-10
4.43455e-10
5.51464e-10
6.72261e-10
8.03105e-10
9.63339e-10
1.13543e-09
1.32458e-09
1.53529e-09
1.75441e-09
1.9883e-09
2.24219e-09
2.51381e-09
2.79497e-09
3.08267e-09
3.38593e-09
3.68097e-09
3.97262e-09
4.32386e-09
4.66077e-09
4.97703e-09
5.31129e-09
5.64754e-09
5.97433e-09
6.29328e-09
6.60664e-09
6.89134e-09
7.17052e-09
7.44238e-09
7.67502e-09
7.8926e-09
8.08816e-09
8.25922e-09
8.41395e-09
8.52952e-09
8.62303e-09
8.69533e-09
8.7236e-09
8.73855e-09
8.71357e-09
8.67081e-09
8.59025e-09
8.48706e-09
8.35835e-09
8.19559e-09
8.01011e-09
7.82799e-09
7.64745e-09
7.40345e-09
7.13354e-09
6.85711e-09
6.57775e-09
6.3015e-09
6.02716e-09
5.74031e-09
5.44193e-09
5.14485e-09
4.84992e-09
4.55456e-09
4.25773e-09
3.96238e-09
3.70242e-09
3.44246e-09
3.17261e-09
2.90087e-09
2.65425e-09
2.42237e-09
2.20407e-09
2.00531e-09
1.8097e-09
1.62943e-09
1.44915e-09
1.28953e-09
1.13194e-09
9.94599e-10
8.68652e-10
7.52239e-10
6.51382e-10
5.53688e-10
4.73917e-10
3.94146e-10
3.31528e-10
2.69441e-10
2.44069e-10
2.20487e-10
1.96906e-10
1.73324e-10
1.54679e-10
1.36974e-10
1.19269e-10
1.02817e-10
8.959e-11
7.63626e-11
6.3534e-11
5.36296e-11
4.37251e-11
3.48744e-11
2.73649e-11
2.03131e-11
1.44382e-11
9.20302e-12
6.76687e-12
4.52209e-12
2.29488e-12
0
)


113
(
0
7.50912e-11
1.49115e-10
2.29412e-10
3.17636e-10
4.14213e-10
5.19993e-10
6.36082e-10
7.59621e-10
8.89686e-10
1.03069e-09
1.17805e-09
1.3304e-09
1.49336e-09
1.66023e-09
1.83272e-09
2.01179e-09
2.19363e-09
2.38097e-09
2.57087e-09
2.76304e-09
2.95779e-09
3.15305e-09
3.34891e-09
3.54916e-09
3.75211e-09
3.96641e-09
4.16896e-09
4.3546e-09
4.55699e-09
4.75064e-09
4.89568e-09
5.04212e-09
5.19014e-09
5.37152e-09
5.52245e-09
5.63301e-09
5.75157e-09
5.86452e-09
5.95848e-09
6.04269e-09
6.1199e-09
6.17788e-09
6.22685e-09
6.26717e-09
6.29021e-09
6.30711e-09
6.30093e-09
6.28959e-09
6.26729e-09
6.22743e-09
6.16776e-09
6.11769e-09
6.07402e-09
5.98273e-09
5.86905e-09
5.76209e-09
5.65789e-09
5.53546e-09
5.40484e-09
5.27096e-09
5.13509e-09
4.99669e-09
4.85595e-09
4.69396e-09
4.4973e-09
4.30576e-09
4.13241e-09
3.9596e-09
3.79969e-09
3.63977e-09
3.4324e-09
3.21599e-09
3.03138e-09
2.86545e-09
2.70099e-09
2.53865e-09
2.37625e-09
2.21355e-09
2.05086e-09
1.89728e-09
1.7446e-09
1.59946e-09
1.45856e-09
1.32259e-09
1.19467e-09
1.06878e-09
9.54481e-10
8.40176e-10
7.39123e-10
6.38479e-10
5.93148e-10
5.49393e-10
5.05638e-10
4.61883e-10
4.23227e-10
3.85543e-10
3.47858e-10
3.11691e-10
2.79428e-10
2.47165e-10
2.15454e-10
1.87801e-10
1.60147e-10
1.34052e-10
1.09942e-10
8.64551e-11
6.45734e-11
4.3263e-11
3.27479e-11
2.21514e-11
1.133e-11
0
)


113
(
0
1.20681e-10
2.31459e-10
3.39533e-10
4.48381e-10
5.59312e-10
6.73228e-10
7.90811e-10
9.10992e-10
1.03341e-09
1.15923e-09
1.28671e-09
1.41549e-09
1.54635e-09
1.67769e-09
1.80971e-09
1.94192e-09
2.07404e-09
2.20558e-09
2.33626e-09
2.46619e-09
2.59388e-09
2.72046e-09
2.84459e-09
2.96611e-09
3.08607e-09
3.2013e-09
3.31428e-09
3.42401e-09
3.52885e-09
3.63105e-09
3.72796e-09
3.82045e-09
3.90961e-09
3.9745e-09
4.04293e-09
4.11606e-09
4.18203e-09
4.24438e-09
4.30037e-09
4.35022e-09
4.39621e-09
4.43415e-09
4.51204e-09
4.6283e-09
4.66661e-09
4.68878e-09
4.70055e-09
4.70681e-09
4.70136e-09
4.6828e-09
4.64944e-09
4.61471e-09
4.57905e-09
4.54671e-09
4.51595e-09
4.41388e-09
4.2827e-09
4.19757e-09
4.13312e-09
4.0624e-09
3.98783e-09
3.9084e-09
3.82447e-09
3.73734e-09
3.64496e-09
3.55278e-09
3.46128e-09
3.36916e-09
3.26207e-09
3.15498e-09
3.04389e-09
2.93205e-09
2.81799e-09
2.70263e-09
2.58635e-09
2.46876e-09
2.35101e-09
2.23248e-09
2.11396e-09
1.9958e-09
1.87768e-09
1.76065e-09
1.64425e-09
1.52898e-09
1.41556e-09
1.30276e-09
1.19349e-09
1.08423e-09
9.79976e-10
8.75882e-10
8.26085e-10
7.76998e-10
7.27911e-10
6.78824e-10
6.32346e-10
5.86366e-10
5.40385e-10
4.95223e-10
4.52165e-10
4.09108e-10
3.66329e-10
3.25587e-10
2.84844e-10
2.44658e-10
2.05179e-10
1.65692e-10
1.26183e-10
8.59154e-11
6.55188e-11
4.43486e-11
2.26362e-11
0
)


113
(
0
1.25296e-10
2.39404e-10
3.46266e-10
4.49018e-10
5.49102e-10
6.47309e-10
7.44256e-10
8.40554e-10
9.36344e-10
1.03142e-09
1.12602e-09
1.22026e-09
1.31346e-09
1.4061e-09
1.49794e-09
1.58842e-09
1.6782e-09
1.76625e-09
1.85302e-09
1.93866e-09
2.02183e-09
2.10251e-09
2.17688e-09
2.25125e-09
2.32553e-09
2.39596e-09
2.46469e-09
2.53096e-09
2.59373e-09
2.65467e-09
2.71201e-09
2.76645e-09
2.81895e-09
2.86666e-09
2.91221e-09
2.95491e-09
2.99327e-09
3.02945e-09
3.06183e-09
3.09057e-09
3.11703e-09
3.13875e-09
3.15763e-09
3.17375e-09
3.18499e-09
3.19463e-09
3.1989e-09
3.20118e-09
3.19924e-09
3.19433e-09
3.18609e-09
3.17405e-09
3.15947e-09
3.14055e-09
3.11959e-09
3.0941e-09
3.06675e-09
3.03503e-09
3.00133e-09
2.96377e-09
2.92385e-09
2.88078e-09
2.8348e-09
2.78662e-09
2.73484e-09
2.68185e-09
2.62459e-09
2.56711e-09
2.50472e-09
2.44233e-09
2.37599e-09
2.30889e-09
2.23913e-09
2.1678e-09
2.09495e-09
2.01989e-09
1.94576e-09
1.87613e-09
1.8065e-09
1.72514e-09
1.64262e-09
1.55913e-09
1.47508e-09
1.3907e-09
1.30576e-09
1.22078e-09
1.13557e-09
1.05036e-09
9.6538e-10
8.80408e-10
8.38113e-10
7.9588e-10
7.53646e-10
7.11412e-10
6.69334e-10
6.27285e-10
5.85236e-10
5.43147e-10
5.00958e-10
4.58768e-10
4.16491e-10
3.73574e-10
3.30657e-10
2.87095e-10
2.42712e-10
1.97735e-10
1.51233e-10
1.03147e-10
7.86092e-11
5.30687e-11
2.69672e-11
0
)


113
(
0
9.82255e-11
1.89124e-10
2.73917e-10
3.54233e-10
4.30886e-10
5.04199e-10
5.74394e-10
6.42587e-10
7.09093e-10
7.73019e-10
8.35525e-10
8.96916e-10
9.55935e-10
1.01402e-09
1.07076e-09
1.12571e-09
1.17982e-09
1.23207e-09
1.28311e-09
1.33309e-09
1.38098e-09
1.42802e-09
1.47331e-09
1.51706e-09
1.55988e-09
1.60027e-09
1.63962e-09
1.67747e-09
1.71325e-09
1.74796e-09
1.78058e-09
1.81155e-09
1.84142e-09
1.8686e-09
1.89459e-09
1.919e-09
1.94102e-09
1.96185e-09
1.98061e-09
1.9974e-09
2.01296e-09
2.02596e-09
2.03742e-09
2.04741e-09
2.05477e-09
2.06127e-09
2.06488e-09
2.06742e-09
2.06768e-09
2.06634e-09
2.06319e-09
2.05797e-09
2.05137e-09
2.04238e-09
2.03226e-09
2.01962e-09
2.00595e-09
1.98981e-09
1.97256e-09
1.95308e-09
1.93224e-09
1.90956e-09
1.88517e-09
1.85945e-09
1.83156e-09
1.80291e-09
1.77161e-09
1.74017e-09
1.70556e-09
1.67095e-09
1.63366e-09
1.59587e-09
1.55617e-09
1.51534e-09
1.47334e-09
1.42963e-09
1.38547e-09
1.33904e-09
1.29261e-09
1.24383e-09
1.19483e-09
1.14428e-09
1.09285e-09
1.04055e-09
9.86818e-10
9.32747e-10
8.76754e-10
8.2076e-10
7.62511e-10
7.04191e-10
6.74065e-10
6.43635e-10
6.13205e-10
5.82774e-10
5.51117e-10
5.19226e-10
4.87335e-10
4.54961e-10
4.21344e-10
3.87727e-10
3.53868e-10
3.18233e-10
2.82597e-10
2.45977e-10
2.08106e-10
1.696e-10
1.29467e-10
8.79987e-11
6.68577e-11
4.49941e-11
2.27654e-11
0
)


113
(
0
5.40651e-11
1.05283e-10
1.53781e-10
2.00022e-10
2.44228e-10
2.86398e-10
3.26461e-10
3.65071e-10
4.02427e-10
4.37753e-10
4.71923e-10
5.05183e-10
5.36494e-10
5.67051e-10
5.96524e-10
6.24603e-10
6.52051e-10
6.7812e-10
7.03351e-10
7.27838e-10
7.50959e-10
7.73546e-10
7.95051e-10
8.15651e-10
8.35713e-10
8.54425e-10
8.72584e-10
8.89947e-10
9.06253e-10
9.22022e-10
9.36762e-10
9.50716e-10
9.64141e-10
9.76316e-10
9.87948e-10
9.98858e-10
1.0087e-09
1.01802e-09
1.02642e-09
1.03397e-09
1.04098e-09
1.0469e-09
1.05215e-09
1.05677e-09
1.06028e-09
1.06342e-09
1.06533e-09
1.06679e-09
1.06729e-09
1.06711e-09
1.06616e-09
1.06433e-09
1.06191e-09
1.05847e-09
1.05455e-09
1.04954e-09
1.04408e-09
1.03754e-09
1.03052e-09
1.02251e-09
1.01389e-09
1.00444e-09
9.94207e-10
9.83357e-10
9.71495e-10
9.59271e-10
9.45765e-10
9.32192e-10
9.17024e-10
9.01856e-10
8.85276e-10
8.68427e-10
8.50506e-10
8.31954e-10
8.12687e-10
7.92393e-10
7.71793e-10
7.49698e-10
7.27603e-10
7.038e-10
6.79827e-10
6.54592e-10
6.28647e-10
6.01908e-10
5.73876e-10
5.4551e-10
5.1525e-10
4.84989e-10
4.52412e-10
4.19763e-10
4.02469e-10
3.84869e-10
3.67269e-10
3.49669e-10
3.30939e-10
3.11995e-10
2.93051e-10
2.73719e-10
2.53388e-10
2.33057e-10
2.12561e-10
1.90847e-10
1.69134e-10
1.46847e-10
1.2383e-10
1.00494e-10
7.63381e-11
5.1586e-11
3.90308e-11
2.61806e-11
1.31903e-11
0
)


113
(
0
4.54121e-12
8.97283e-12
1.32895e-11
1.75019e-11
2.16132e-11
2.5616e-11
2.94959e-11
3.32848e-11
3.69931e-11
4.0561e-11
4.40426e-11
4.74564e-11
5.07142e-11
5.39081e-11
5.70099e-11
5.9987e-11
6.29066e-11
6.56975e-11
6.84072e-11
7.10449e-11
7.35466e-11
7.59945e-11
7.83321e-11
8.0576e-11
8.27643e-11
8.4811e-11
8.67993e-11
8.87035e-11
9.04953e-11
9.22299e-11
9.38548e-11
9.53958e-11
9.68802e-11
9.82312e-11
9.95241e-11
1.0074e-10
1.01842e-10
1.02888e-10
1.03838e-10
1.04696e-10
1.05497e-10
1.06181e-10
1.06796e-10
1.07344e-10
1.07774e-10
1.08164e-10
1.08426e-10
1.08639e-10
1.0875e-10
1.08789e-10
1.08746e-10
1.0861e-10
1.08411e-10
1.08103e-10
1.07744e-10
1.07267e-10
1.06742e-10
1.061e-10
1.05406e-10
1.04604e-10
1.03736e-10
1.02775e-10
1.0173e-10
1.00615e-10
9.93879e-11
9.81204e-11
9.6709e-11
9.52902e-11
9.36911e-11
9.2092e-11
9.03326e-11
8.85426e-11
8.66304e-11
8.46464e-11
8.25813e-11
8.03995e-11
7.81832e-11
7.5799e-11
7.34147e-11
7.08422e-11
6.8251e-11
6.55251e-11
6.27235e-11
5.98412e-11
5.68272e-11
5.37814e-11
5.05548e-11
4.73283e-11
4.38982e-11
4.04618e-11
3.86664e-11
3.68467e-11
3.50269e-11
3.32072e-11
3.13071e-11
2.93918e-11
2.74764e-11
2.55366e-11
2.35337e-11
2.15308e-11
1.95187e-11
1.74385e-11
1.53582e-11
1.32493e-11
1.1104e-11
8.94426e-12
6.74745e-12
4.52577e-12
3.40753e-12
2.27769e-12
1.14255e-12
0
)

)


10
(

113
(
0
1.65403e-18
2.9163e-17
2.22385e-16
9.07188e-16
2.98072e-15
8.75166e-15
2.32802e-14
5.59726e-14
1.23719e-13
2.60359e-13
5.36516e-13
1.08862e-12
2.15152e-12
4.08835e-12
7.6155e-12
1.40038e-11
2.41928e-11
3.93733e-11
6.06819e-11
8.90907e-11
1.25314e-10
1.69811e-10
2.23894e-10
2.86129e-10
3.56445e-10
4.34619e-10
5.20757e-10
6.16311e-10
7.26864e-10
8.69358e-10
1.08854e-09
1.49135e-09
2.30703e-09
3.9849e-09
7.34097e-09
1.34423e-08
2.34228e-08
3.80809e-08
5.6888e-08
7.6847e-08
9.21334e-08
9.76206e-08
9.26977e-08
8.08139e-08
6.65371e-08
5.32398e-08
4.24254e-08
3.44409e-08
2.86938e-08
2.44854e-08
2.13543e-08
1.89321e-08
1.69636e-08
1.52739e-08
1.37617e-08
1.23119e-08
1.08989e-08
9.5136e-09
8.17144e-09
6.89962e-09
5.70158e-09
4.60392e-09
3.67957e-09
2.86181e-09
2.17812e-09
1.6658e-09
1.2285e-09
9.1381e-10
6.7508e-10
4.80389e-10
3.61931e-10
2.58596e-10
1.91507e-10
1.38824e-10
1.00319e-10
7.3751e-11
5.18023e-11
3.8532e-11
2.65468e-11
1.96226e-11
1.34139e-11
9.58664e-12
6.43436e-12
4.35576e-12
2.83125e-12
1.75281e-12
1.09734e-12
5.8286e-13
3.60368e-13
1.80285e-13
1.37981e-13
9.56761e-14
6.30065e-14
4.77662e-14
3.25259e-14
2.0487e-14
1.50667e-14
9.64635e-15
6.09212e-15
4.12753e-15
2.21029e-15
1.49152e-15
7.72748e-16
4.45557e-16
1.87728e-16
9.61868e-17
3.50761e-17
9.91411e-18
3.9334e-18
1.4444e-18
2.46843e-19
0
)


113
(
0
3.2319e-16
2.1695e-15
9.64005e-15
3.05485e-14
8.2554e-14
2.00389e-13
4.51482e-13
9.49209e-13
1.86007e-12
3.42564e-12
5.96062e-12
9.85625e-12
1.55884e-11
2.37145e-11
3.51986e-11
5.1484e-11
7.35303e-11
1.0332e-10
1.43888e-10
1.99918e-10
2.78547e-10
3.90683e-10
5.65583e-10
8.26032e-10
1.21061e-09
1.76991e-09
2.56573e-09
3.67067e-09
5.15983e-09
7.10389e-09
9.57122e-09
1.26058e-08
1.62184e-08
2.03635e-08
2.49529e-08
2.98106e-08
3.47297e-08
3.94774e-08
4.37997e-08
4.7454e-08
5.0203e-08
5.1927e-08
5.25727e-08
5.21543e-08
5.07152e-08
4.84168e-08
4.54562e-08
4.19987e-08
3.82528e-08
3.44179e-08
3.06537e-08
2.70712e-08
2.37377e-08
2.06901e-08
1.80265e-08
1.56664e-08
1.35611e-08
1.16841e-08
1.00774e-08
8.66732e-09
7.39654e-09
6.27288e-09
5.31627e-09
4.44692e-09
3.68163e-09
3.04432e-09
2.46652e-09
1.99026e-09
1.59027e-09
1.23452e-09
9.76704e-10
7.43156e-10
5.70461e-10
4.28628e-10
3.17169e-10
2.36634e-10
1.68066e-10
1.25329e-10
8.65169e-11
6.3982e-11
4.38047e-11
3.14756e-11
2.13764e-11
1.48243e-11
1.00078e-11
6.58853e-12
4.41717e-12
2.66178e-12
1.78511e-12
1.0476e-12
8.36333e-13
6.25068e-13
4.54142e-13
3.56188e-13
2.58234e-13
1.78167e-13
1.35081e-13
9.19956e-14
6.21965e-14
4.37156e-14
2.56442e-14
1.79378e-14
1.02314e-14
6.36738e-15
3.18537e-15
1.80754e-15
8.20032e-16
3.14219e-16
1.6479e-16
8.2226e-17
2.90125e-17
0
)


113
(
0
7.13762e-13
2.23688e-12
5.25984e-12
1.03879e-11
1.86988e-11
3.18944e-11
5.20936e-11
8.17399e-11
1.2366e-10
1.82295e-10
2.61976e-10
3.67823e-10
5.05597e-10
6.8124e-10
9.07535e-10
1.198e-09
1.55339e-09
1.98155e-09
2.49037e-09
3.08869e-09
3.78649e-09
4.5933e-09
5.53013e-09
6.57294e-09
7.71411e-09
8.96292e-09
1.03199e-08
1.17792e-08
1.33299e-08
1.49523e-08
1.66252e-08
1.83113e-08
1.99867e-08
2.16211e-08
2.32241e-08
2.47584e-08
2.61799e-08
2.74746e-08
2.86224e-08
2.96009e-08
3.03825e-08
3.09551e-08
3.13175e-08
3.14825e-08
3.14401e-08
3.11598e-08
3.07068e-08
3.00704e-08
2.92348e-08
2.82257e-08
2.70724e-08
2.58171e-08
2.44868e-08
2.30918e-08
2.16337e-08
2.01469e-08
1.86595e-08
1.71857e-08
1.57465e-08
1.43465e-08
1.29863e-08
1.16791e-08
1.04635e-08
9.30719e-09
8.22674e-09
7.2575e-09
6.34349e-09
5.52779e-09
4.79225e-09
4.10319e-09
3.52971e-09
2.98878e-09
2.53124e-09
2.1236e-09
1.76509e-09
1.46781e-09
1.19422e-09
9.84506e-10
7.85525e-10
6.3933e-10
5.03131e-10
4.00207e-10
3.09885e-10
2.39607e-10
1.82439e-10
1.35824e-10
1.01958e-10
7.23421e-11
5.35191e-11
3.69751e-11
3.13216e-11
2.56682e-11
2.08054e-11
1.73728e-11
1.39402e-11
1.09744e-11
8.97381e-12
6.97321e-12
5.41619e-12
4.23705e-12
3.07622e-12
2.37887e-12
1.68152e-12
1.2207e-12
8.02234e-13
5.4077e-13
3.26081e-13
1.74328e-13
1.15635e-13
7.11828e-14
3.35594e-14
0
)


113
(
0
4.61732e-11
1.03212e-10
1.79493e-10
2.75954e-10
3.95458e-10
5.4103e-10
7.15476e-10
9.21299e-10
1.16065e-09
1.43533e-09
1.74689e-09
2.10077e-09
2.49914e-09
2.93597e-09
3.41845e-09
3.93512e-09
4.48566e-09
5.08391e-09
5.71419e-09
6.37283e-09
7.08225e-09
7.81802e-09
8.58628e-09
9.36306e-09
1.01573e-08
1.09733e-08
1.18068e-08
1.26319e-08
1.34355e-08
1.42372e-08
1.50163e-08
1.57877e-08
1.65417e-08
1.7269e-08
1.79377e-08
1.85262e-08
1.90872e-08
1.96048e-08
2.00583e-08
2.04387e-08
2.07607e-08
2.10124e-08
2.11878e-08
2.12906e-08
2.13326e-08
2.13054e-08
2.1188e-08
2.10153e-08
2.07884e-08
2.04691e-08
2.0074e-08
1.96355e-08
1.91595e-08
1.86277e-08
1.80313e-08
1.74139e-08
1.67748e-08
1.61119e-08
1.54081e-08
1.46768e-08
1.39272e-08
1.31593e-08
1.24124e-08
1.16731e-08
1.09414e-08
1.02144e-08
9.49304e-09
8.78548e-09
8.1058e-09
7.44228e-09
6.82222e-09
6.21478e-09
5.63978e-09
5.09212e-09
4.57136e-09
4.10782e-09
3.6664e-09
3.26431e-09
2.86974e-09
2.5189e-09
2.1823e-09
1.89311e-09
1.62308e-09
1.38353e-09
1.17313e-09
9.86219e-10
8.26075e-10
6.74854e-10
5.55674e-10
4.44747e-10
3.98843e-10
3.5294e-10
3.10894e-10
2.75823e-10
2.40753e-10
2.08438e-10
1.81818e-10
1.55198e-10
1.32055e-10
1.11875e-10
9.18774e-11
7.65113e-11
6.11452e-11
4.87937e-11
3.69861e-11
2.76938e-11
1.92918e-11
1.21108e-11
8.86708e-12
5.88125e-12
2.96801e-12
0
)


113
(
0
1.92713e-10
3.81751e-10
5.86991e-10
8.12077e-10
1.05914e-09
1.32893e-09
1.62115e-09
1.93499e-09
2.26939e-09
2.62322e-09
2.99535e-09
3.38462e-09
3.78988e-09
4.20992e-09
4.64439e-09
5.09216e-09
5.55007e-09
6.01657e-09
6.49008e-09
6.96892e-09
7.45137e-09
7.9356e-09
8.4193e-09
8.91324e-09
9.3953e-09
9.90418e-09
1.03854e-08
1.08286e-08
1.12776e-08
1.17072e-08
1.21167e-08
1.25188e-08
1.28747e-08
1.32548e-08
1.35722e-08
1.38498e-08
1.40989e-08
1.43471e-08
1.45939e-08
1.47843e-08
1.49167e-08
1.50479e-08
1.51412e-08
1.52082e-08
1.52435e-08
1.52434e-08
1.523e-08
1.51619e-08
1.50896e-08
1.49712e-08
1.48122e-08
1.46331e-08
1.44351e-08
1.42038e-08
1.39758e-08
1.3711e-08
1.34077e-08
1.3073e-08
1.27379e-08
1.23985e-08
1.20401e-08
1.1647e-08
1.12517e-08
1.08506e-08
1.04404e-08
9.99082e-09
9.54482e-09
9.13019e-09
8.72846e-09
8.33423e-09
7.84113e-09
7.35222e-09
6.88658e-09
6.48329e-09
6.14137e-09
5.7328e-09
5.29844e-09
4.91272e-09
4.53357e-09
4.17502e-09
3.82222e-09
3.48857e-09
3.16525e-09
2.85836e-09
2.56685e-09
2.28773e-09
2.02955e-09
1.77836e-09
1.55424e-09
1.33803e-09
1.23912e-09
1.14021e-09
1.04562e-09
9.58842e-10
8.72064e-10
7.88888e-10
7.1316e-10
6.37431e-10
5.67e-10
5.01081e-10
4.35482e-10
3.77962e-10
3.20442e-10
2.68686e-10
2.17971e-10
1.72127e-10
1.27814e-10
8.53673e-11
6.4519e-11
4.36021e-11
2.22668e-11
0
)


113
(
0
3.04195e-10
5.82006e-10
8.5292e-10
1.12544e-09
1.40323e-09
1.68806e-09
1.98046e-09
2.28011e-09
2.58629e-09
2.8981e-09
3.21456e-09
3.53474e-09
3.85771e-09
4.1826e-09
4.50853e-09
4.83439e-09
5.15925e-09
5.48233e-09
5.80286e-09
6.12005e-09
6.43317e-09
6.74143e-09
7.04309e-09
7.33825e-09
7.62622e-09
7.90634e-09
8.17794e-09
8.44037e-09
8.69301e-09
8.93528e-09
9.16661e-09
9.38646e-09
9.59224e-09
9.74617e-09
9.92741e-09
1.00954e-08
1.02501e-08
1.0391e-08
1.0518e-08
1.0631e-08
1.07293e-08
1.0813e-08
1.09124e-08
1.11723e-08
1.12201e-08
1.12722e-08
1.13006e-08
1.13025e-08
1.12842e-08
1.12335e-08
1.11813e-08
1.11086e-08
1.10025e-08
1.08726e-08
1.06846e-08
1.06487e-08
1.04284e-08
9.99019e-09
9.82111e-09
9.64015e-09
9.45017e-09
9.25007e-09
9.03734e-09
8.81774e-09
8.58981e-09
8.36494e-09
8.13307e-09
7.87952e-09
7.62024e-09
7.35763e-09
7.08775e-09
6.81612e-09
6.54012e-09
6.26211e-09
5.98213e-09
5.7007e-09
5.41871e-09
5.13677e-09
4.85499e-09
4.5752e-09
4.29639e-09
4.02081e-09
3.74763e-09
3.47825e-09
3.21333e-09
2.952e-09
2.69793e-09
2.44628e-09
2.2056e-09
1.96857e-09
1.85433e-09
1.74008e-09
1.62809e-09
1.52017e-09
1.41224e-09
1.30635e-09
1.20466e-09
1.10297e-09
1.00436e-09
9.08366e-10
8.12547e-10
7.21175e-10
6.29802e-10
5.41019e-10
4.52695e-10
3.65494e-10
2.77908e-10
1.8917e-10
1.44058e-10
9.75673e-11
4.97607e-11
0
)


113
(
0
3.10907e-10
5.92946e-10
8.568e-10
1.11031e-09
1.35686e-09
1.59876e-09
1.83754e-09
2.07412e-09
2.30899e-09
2.54234e-09
2.77416e-09
3.00434e-09
3.23269e-09
3.45898e-09
3.68275e-09
3.90344e-09
4.12108e-09
4.33536e-09
4.54599e-09
4.7527e-09
4.95519e-09
5.15319e-09
5.31365e-09
5.4918e-09
5.66786e-09
5.83785e-09
6.00153e-09
6.15867e-09
6.30904e-09
6.45244e-09
6.58869e-09
6.71758e-09
6.83898e-09
6.95271e-09
7.05848e-09
7.15634e-09
7.24627e-09
7.32818e-09
7.40199e-09
7.46766e-09
7.52486e-09
7.5737e-09
7.61424e-09
7.64653e-09
7.67057e-09
7.68637e-09
7.69401e-09
7.69294e-09
7.68333e-09
7.66565e-09
7.63994e-09
7.6064e-09
7.56525e-09
7.51674e-09
7.45895e-09
7.39353e-09
7.32128e-09
7.24253e-09
7.15517e-09
7.06041e-09
6.95993e-09
6.85292e-09
6.73741e-09
6.6171e-09
6.49089e-09
6.35685e-09
6.219e-09
6.07448e-09
5.92447e-09
5.77129e-09
5.61021e-09
5.44689e-09
5.27786e-09
5.1053e-09
4.92926e-09
4.74873e-09
4.56646e-09
4.39622e-09
4.22516e-09
4.0295e-09
3.83323e-09
3.63495e-09
3.43604e-09
3.23613e-09
3.03589e-09
2.83536e-09
2.63507e-09
2.43487e-09
2.23573e-09
2.03705e-09
1.93824e-09
1.83944e-09
1.74091e-09
1.64286e-09
1.54481e-09
1.44691e-09
1.34931e-09
1.2517e-09
1.15399e-09
1.05619e-09
9.58346e-10
8.59396e-10
7.60445e-10
6.59552e-10
5.58294e-10
4.53705e-10
3.47003e-10
2.36755e-10
1.80196e-10
1.21749e-10
6.18344e-11
0
)


113
(
0
2.39861e-10
4.61273e-10
6.67604e-10
8.62972e-10
1.04901e-09
1.22703e-09
1.39822e-09
1.56351e-09
1.72365e-09
1.87918e-09
2.03053e-09
2.17799e-09
2.32177e-09
2.46203e-09
2.59863e-09
2.73144e-09
2.86092e-09
2.98706e-09
3.10986e-09
3.22926e-09
3.34524e-09
3.45771e-09
3.56608e-09
3.67084e-09
3.77195e-09
3.86932e-09
3.96289e-09
4.05259e-09
4.13836e-09
4.22012e-09
4.29782e-09
4.3714e-09
4.4408e-09
4.50598e-09
4.5668e-09
4.62331e-09
4.67552e-09
4.72341e-09
4.76695e-09
4.80611e-09
4.84075e-09
4.87093e-09
4.89668e-09
4.91803e-09
4.93498e-09
4.94753e-09
4.95572e-09
4.95925e-09
4.95818e-09
4.95277e-09
4.94302e-09
4.929e-09
4.91084e-09
4.88864e-09
4.8613e-09
4.82972e-09
4.79429e-09
4.7552e-09
4.71119e-09
4.6629e-09
4.61127e-09
4.5558e-09
4.49524e-09
4.43176e-09
4.36467e-09
4.29266e-09
4.21823e-09
4.13949e-09
4.05709e-09
3.97258e-09
3.88256e-09
3.79093e-09
3.69513e-09
3.59658e-09
3.49534e-09
3.39031e-09
3.28382e-09
3.17275e-09
3.06086e-09
2.94454e-09
2.82717e-09
2.70629e-09
2.58375e-09
2.45854e-09
2.33102e-09
2.20163e-09
2.06915e-09
1.93564e-09
1.79796e-09
1.65891e-09
1.58779e-09
1.51667e-09
1.44466e-09
1.37103e-09
1.29741e-09
1.22284e-09
1.14634e-09
1.06984e-09
9.91552e-10
9.11739e-10
8.31784e-10
7.48214e-10
6.64644e-10
5.77577e-10
4.89868e-10
3.9796e-10
3.03958e-10
2.06689e-10
1.56863e-10
1.05643e-10
5.34311e-11
0
)


113
(
0
1.30648e-10
2.54247e-10
3.71204e-10
4.82719e-10
5.89103e-10
6.90652e-10
7.87712e-10
8.80629e-10
9.69725e-10
1.05528e-09
1.13752e-09
1.21666e-09
1.29286e-09
1.36626e-09
1.4368e-09
1.50446e-09
1.56966e-09
1.63249e-09
1.693e-09
1.75125e-09
1.80728e-09
1.86113e-09
1.91251e-09
1.96182e-09
2.00907e-09
2.05429e-09
2.0975e-09
2.1387e-09
2.17792e-09
2.21516e-09
2.25044e-09
2.28375e-09
2.31512e-09
2.34454e-09
2.37198e-09
2.39749e-09
2.4211e-09
2.44281e-09
2.46262e-09
2.48055e-09
2.49653e-09
2.5106e-09
2.52278e-09
2.5331e-09
2.54156e-09
2.54816e-09
2.55292e-09
2.5557e-09
2.55656e-09
2.55557e-09
2.55274e-09
2.54811e-09
2.5417e-09
2.53358e-09
2.52324e-09
2.51107e-09
2.49723e-09
2.48178e-09
2.46417e-09
2.44465e-09
2.42363e-09
2.40086e-09
2.37576e-09
2.34928e-09
2.3211e-09
2.29056e-09
2.25883e-09
2.22496e-09
2.18921e-09
2.15237e-09
2.11259e-09
2.07191e-09
2.02888e-09
1.98422e-09
1.93796e-09
1.88929e-09
1.83969e-09
1.78694e-09
1.73361e-09
1.67697e-09
1.61946e-09
1.55908e-09
1.4972e-09
1.43292e-09
1.36637e-09
1.298e-09
1.22639e-09
1.15371e-09
1.07652e-09
9.97885e-10
9.56875e-10
9.15866e-10
8.73961e-10
8.30439e-10
7.86917e-10
7.42545e-10
6.96416e-10
6.50287e-10
6.02726e-10
5.53944e-10
5.05062e-10
4.5365e-10
4.02238e-10
3.48687e-10
2.94746e-10
2.38537e-10
1.81315e-10
1.22566e-10
9.26655e-11
6.21894e-11
3.13248e-11
0
)


113
(
0
1.08804e-11
2.14939e-11
3.18299e-11
4.19183e-11
5.17543e-11
6.13341e-11
7.06581e-11
7.97296e-11
8.85532e-11
9.71339e-11
1.05476e-10
1.13584e-10
1.2146e-10
1.29107e-10
1.36513e-10
1.43665e-10
1.50596e-10
1.57305e-10
1.63796e-10
1.70068e-10
1.76124e-10
1.81962e-10
1.87552e-10
1.9293e-10
1.98096e-10
2.03052e-10
2.07797e-10
2.12333e-10
2.1666e-10
2.20779e-10
2.2469e-10
2.28393e-10
2.3189e-10
2.35182e-10
2.38263e-10
2.4114e-10
2.43816e-10
2.4629e-10
2.48564e-10
2.50639e-10
2.52508e-10
2.54175e-10
2.55644e-10
2.56916e-10
2.57992e-10
2.58871e-10
2.59556e-10
2.60033e-10
2.60305e-10
2.60383e-10
2.60264e-10
2.59954e-10
2.59455e-10
2.58772e-10
2.57852e-10
2.56735e-10
2.55437e-10
2.53965e-10
2.52257e-10
2.50341e-10
2.48259e-10
2.45986e-10
2.43453e-10
2.40767e-10
2.37891e-10
2.34749e-10
2.31472e-10
2.27953e-10
2.2422e-10
2.20362e-10
2.16167e-10
2.11868e-10
2.073e-10
2.02544e-10
1.97603e-10
1.92386e-10
1.87063e-10
1.81382e-10
1.75636e-10
1.69518e-10
1.63307e-10
1.56781e-10
1.50097e-10
1.43159e-10
1.35992e-10
1.2864e-10
1.2098e-10
1.13216e-10
1.05051e-10
9.6765e-11
9.24825e-11
8.82001e-11
8.38501e-11
7.93777e-11
7.49054e-11
7.03747e-11
6.57233e-11
6.10719e-11
5.63313e-11
5.15146e-11
4.66923e-11
4.17271e-11
3.67619e-11
3.16866e-11
2.65913e-11
2.13887e-11
1.61416e-11
1.08286e-11
8.15034e-12
5.44925e-12
2.73325e-12
0
)

)


10
(

113
(
0
3.73625e-17
7.08462e-16
4.79553e-15
1.96329e-14
6.45688e-14
1.8218e-13
4.46925e-13
9.65351e-13
1.89061e-12
3.51754e-12
6.27917e-12
1.07275e-11
1.76462e-11
2.81077e-11
4.47333e-11
6.845e-11
9.90846e-11
1.36083e-10
1.86917e-10
2.45308e-10
3.145e-10
3.94667e-10
4.82462e-10
5.74769e-10
6.8825e-10
8.2625e-10
1.00833e-09
1.2675e-09
1.66e-09
2.36e-09
3.77182e-09
6.20333e-09
1.0235e-08
1.69455e-08
2.8e-08
4.43273e-08
6.66182e-08
9.48e-08
1.25891e-07
1.55182e-07
1.762e-07
1.82909e-07
1.749e-07
1.56364e-07
1.32727e-07
1.08091e-07
8.63333e-08
6.84833e-08
5.39e-08
4.39e-08
3.51833e-08
2.82154e-08
2.27714e-08
1.86286e-08
1.51143e-08
1.20714e-08
9.5e-09
7.63333e-09
6.04375e-09
4.73125e-09
3.75062e-09
2.89125e-09
2.22875e-09
1.72941e-09
1.3e-09
1.03667e-09
7.91556e-10
6.19333e-10
4.72e-10
3.62e-10
2.78842e-10
2.13579e-10
1.65632e-10
1.25105e-10
9.788e-11
7.398e-11
5.768e-11
4.328e-11
3.34e-11
2.465e-11
1.874e-11
1.354e-11
9.95684e-12
6.77789e-12
4.948e-12
3.268e-12
2.235e-12
1.3255e-12
8.805e-13
5.07765e-13
4.05706e-13
3.03647e-13
2.1325e-13
1.695e-13
1.2575e-13
8.2e-14
6.41333e-14
4.62667e-14
2.84e-14
2.03542e-14
1.23083e-14
7.34182e-15
4.42818e-15
2.24956e-15
1.17344e-15
5.09857e-16
1.7475e-16
5.35e-17
2.9125e-17
9.185e-18
1.7175e-18
0
)


113
(
0
5.46933e-15
3.16135e-14
1.11242e-13
2.97301e-13
6.90751e-13
1.46395e-12
2.87124e-12
5.25997e-12
9.0971e-12
1.48908e-11
2.33519e-11
3.50527e-11
5.08776e-11
7.29034e-11
1.02453e-10
1.41685e-10
1.94425e-10
2.63075e-10
3.62756e-10
5.14925e-10
7.33912e-10
1.05698e-09
1.52991e-09
2.22167e-09
3.27642e-09
4.77355e-09
6.82251e-09
9.54258e-09
1.30587e-08
1.76157e-08
2.32875e-08
3.00916e-08
3.78799e-08
4.65008e-08
5.57848e-08
6.54041e-08
7.49396e-08
8.39383e-08
9.1777e-08
9.81057e-08
1.0265e-07
1.05038e-07
1.05355e-07
1.03382e-07
9.95072e-08
9.40249e-08
8.72338e-08
7.95329e-08
7.12845e-08
6.29007e-08
5.47542e-08
4.70542e-08
3.98848e-08
3.34589e-08
2.78966e-08
2.29644e-08
1.86533e-08
1.52954e-08
1.23645e-08
9.86068e-09
7.97527e-09
6.31411e-09
5.01584e-09
3.99196e-09
3.08567e-09
2.47356e-09
1.90337e-09
1.50085e-09
1.15491e-09
8.9384e-10
6.90345e-10
5.25232e-10
4.04797e-10
3.03508e-10
2.3491e-10
1.74485e-10
1.34258e-10
9.90808e-11
7.57844e-11
5.54583e-11
4.20533e-11
3.03787e-11
2.27013e-11
1.60233e-11
1.19378e-11
8.1404e-12
5.86729e-12
3.85781e-12
2.69679e-12
1.70139e-12
1.39692e-12
1.09246e-12
8.18363e-13
6.65768e-13
5.13173e-13
3.60578e-13
2.87405e-13
2.14231e-13
1.41058e-13
1.06561e-13
7.20643e-14
4.84496e-14
3.20897e-14
1.92166e-14