/*--------------------------------*- C++ -*----------------------------------*\
| =========                 |                                                 |
| \\      /  F ield         | OpenFOAM: The Open Source CFD Toolbox           |
|  \\    /   O peration     | Version:  2.3.0                                 |
|   \\  /    A nd           | Web:      www.OpenFOAM.org                      |
|    \\/     M anipulation  |                                                 |
\*---------------------------------------------------------------------------*/
FoamFile
{
    version     2.0;
    format      ascii;
    class       dictionary;
    location    "constant";
    object      NO2;
}
// * * * * * * * * * * * * * * * * * * * * * * * * * * * * * * * * * * * * * //

NO2_table
13
(

10
(

113
(
0
1.57042e-06
3.35542e-06
5.123e-06
6.75991e-06
8.1819e-06
9.26127e-06
9.7373e-06
9.65745e-06
9.07636e-06
7.73861e-06
6.27051e-06
4.7e-06
3.48616e-06
2.47714e-06
1.76286e-06
1.33043e-06
9.97037e-07
8.03134e-07
6.52172e-07
5.39288e-07
4.61598e-07
3.93198e-07
3.40111e-07
2.94926e-07
2.54342e-07
2.21422e-07
1.9054e-07
1.6259e-07
1.37881e-07
1.14682e-07
9.41194e-08
7.59333e-08
5.93459e-08
4.66415e-08
3.55354e-08
2.65481e-08
2.0143e-08
1.47491e-08
1.08566e-08
7.94478e-09
5.58963e-09
4.08652e-09
2.91635e-09
2.06605e-09
1.54156e-09
1.10265e-09
8.5405e-10
6.42795e-10
5.10903e-10
4.15112e-10
3.60032e-10
3.42063e-10
3.48833e-10
4.00706e-10
4.73802e-10
6.02203e-10
7.53193e-10
9.7e-10
1.21638e-09
1.53438e-09
1.89629e-09
2.33486e-09
2.84421e-09
3.43972e-09
4.17583e-09
5.01239e-09
6.20505e-09
7.44364e-09
9.78455e-09
1.21255e-08
1.73271e-08
2.30738e-08
3.55581e-08
5.19995e-08
8.13397e-08
1.29242e-07
1.89159e-07
3.07743e-07
4.26327e-07
6.3704e-07
8.56863e-07
1.12404e-06
1.41784e-06
1.70735e-06
1.98987e-06
2.25546e-06
2.42518e-06
2.59491e-06
2.58144e-06
2.5623e-06
2.49214e-06
2.40286e-06
2.31357e-06
2.22429e-06
2.09674e-06
1.96191e-06
1.82708e-06
1.68835e-06
1.53962e-06
1.39089e-06
1.24142e-06
1.08657e-06
9.31716e-07
7.80019e-07
6.32333e-07
4.87111e-07
3.48222e-07
2.16732e-07
1.53309e-07
9.46657e-08
4.1819e-08
0
)


113
(
0
1.59888e-06
3.24382e-06
4.73798e-06
6.01411e-06
7.00843e-06
7.64573e-06
7.85492e-06
7.77401e-06
7.45053e-06
6.81319e-06
6.08276e-06
5.27917e-06
4.47337e-06
3.71179e-06
3.01384e-06
2.44211e-06
1.92831e-06
1.5433e-06
1.22411e-06
9.63267e-07
7.82303e-07
6.25862e-07
5.13962e-07
4.25026e-07
3.49474e-07
2.96846e-07
2.49904e-07
2.11144e-07
1.79833e-07
1.51718e-07
1.2862e-07
1.0842e-07
9.01503e-08
7.56542e-08
6.24792e-08
5.10554e-08
4.18709e-08
3.36547e-08
2.69876e-08
2.15362e-08
1.67967e-08
1.32728e-08
1.03043e-08
7.86922e-09
6.12942e-09
4.58965e-09
3.59681e-09
2.73744e-09
2.16173e-09
1.71977e-09
1.42865e-09
1.25797e-09
1.16758e-09
1.18624e-09
1.25622e-09
1.44055e-09
1.67158e-09
2.05946e-09
2.5178e-09
3.22647e-09
4.08856e-09
5.39505e-09
7.11174e-09
9.53793e-09
1.31217e-08
1.75703e-08
2.50847e-08
3.29153e-08
4.83351e-08
6.37549e-08
9.13292e-08
1.21218e-07
1.66136e-07
2.19881e-07
2.87818e-07
3.7618e-07
4.71685e-07
6.02064e-07
7.32444e-07
8.98599e-07
1.06829e-06
1.25035e-06
1.43936e-06
1.621e-06
1.79063e-06
1.95049e-06
2.05508e-06
2.15967e-06
2.16681e-06
2.17095e-06
2.13166e-06
2.0793e-06
2.02695e-06
1.9746e-06
1.88462e-06
1.78748e-06
1.69035e-06
1.58516e-06
1.45929e-06
1.33342e-06
1.20594e-06
1.06672e-06
9.27502e-07
7.87398e-07
6.46169e-07
5.06171e-07
3.69336e-07
2.3711e-07
1.72549e-07
1.12171e-07
5.49334e-08
0
)


113
(
0
1.32612e-06
2.46799e-06
3.44276e-06
4.23732e-06
4.85636e-06
5.30583e-06
5.53668e-06
5.63817e-06
5.63377e-06
5.4778e-06
5.25827e-06
4.98881e-06
4.64906e-06
4.297e-06
3.92721e-06
3.5556e-06
3.18736e-06
2.83769e-06
2.5093e-06
2.19978e-06
1.92452e-06
1.66581e-06
1.44334e-06
1.24252e-06
1.0547e-06
9.07392e-07
7.72304e-07
6.54793e-07
5.57836e-07
4.70198e-07
3.98286e-07
3.36824e-07
2.82296e-07
2.40149e-07
2.02313e-07
1.70192e-07
1.44518e-07
1.21531e-07
1.02736e-07
8.70094e-08
7.30719e-08
6.2146e-08
5.26309e-08
4.44712e-08
3.81107e-08
3.23011e-08
2.81761e-08
2.45415e-08
2.19491e-08
2.00959e-08
1.90762e-08
1.88877e-08
1.92535e-08
2.08138e-08
2.29362e-08
2.66214e-08
3.0945e-08
3.72511e-08
4.4448e-08
5.41018e-08
6.52615e-08
7.92702e-08
9.59088e-08
1.15213e-07
1.38867e-07
1.64514e-07
1.97228e-07
2.30384e-07
2.74122e-07
3.17861e-07
3.72072e-07
4.28278e-07
4.92929e-07
5.62539e-07
6.37151e-07
7.18961e-07
8.02262e-07
8.92836e-07
9.83409e-07
1.07631e-06
1.16943e-06
1.25769e-06
1.34321e-06
1.42122e-06
1.48697e-06
1.54768e-06
1.57984e-06
1.61201e-06
1.60103e-06
1.58873e-06
1.563e-06
1.53109e-06
1.49918e-06
1.46727e-06
1.41401e-06
1.35668e-06
1.29935e-06
1.23504e-06
1.15282e-06
1.07059e-06
9.86478e-07
8.88573e-07
7.90669e-07
6.87807e-07
5.78633e-07
4.67966e-07
3.53457e-07
2.38914e-07
1.8167e-07
1.24855e-07
6.65611e-08
0
)


113
(
0
9.31667e-07
1.65221e-06
2.2687e-06
2.79574e-06
3.23453e-06
3.57988e-06
3.82733e-06
4.00923e-06
4.13547e-06
4.17762e-06
4.17748e-06
4.1441e-06
4.06056e-06
3.95544e-06
3.81926e-06
3.65737e-06
3.48593e-06
3.29924e-06
3.10765e-06
2.91174e-06
2.71749e-06
2.52456e-06
2.33483e-06
2.15464e-06
1.97996e-06
1.81263e-06
1.65245e-06
1.50255e-06
1.36652e-06
1.23692e-06
1.11842e-06
1.00802e-06
9.03078e-07
8.12667e-07
7.27127e-07
6.48046e-07
5.79188e-07
5.1549e-07
4.60865e-07
4.11598e-07
3.65803e-07
3.27819e-07
2.93465e-07
2.62597e-07
2.39331e-07
2.18009e-07
2.00699e-07
1.85695e-07
1.75593e-07
1.68186e-07
1.63816e-07
1.62151e-07
1.62288e-07
1.66346e-07
1.7225e-07
1.81654e-07
1.92489e-07
2.06705e-07
2.2244e-07
2.41833e-07
2.63468e-07
2.87606e-07
3.14053e-07
3.42683e-07
3.74871e-07
4.08195e-07
4.4555e-07
4.83103e-07
5.25406e-07
5.6771e-07
6.1335e-07
6.59625e-07
7.07498e-07
7.5631e-07
8.05351e-07
8.54721e-07
9.03736e-07
9.51011e-07
9.98286e-07
1.04022e-06
1.08162e-06
1.11675e-06
1.14836e-06
1.17399e-06
1.18988e-06
1.20258e-06
1.19724e-06
1.1919e-06
1.16492e-06
1.13728e-06
1.1133e-06
1.08611e-06
1.05892e-06
1.03172e-06
9.92955e-07
9.5198e-07
9.11006e-07
8.66366e-07
8.12303e-07
7.58239e-07
7.02834e-07
6.3759e-07
5.72345e-07
5.03508e-07
4.30099e-07
3.55166e-07
2.76315e-07
1.94001e-07
1.51647e-07
1.05779e-07
5.6559e-08
0
)


113
(
0
6.25828e-07
1.10433e-06
1.50533e-06
1.85602e-06
2.1633e-06
2.42626e-06
2.64118e-06
2.8223e-06
2.97417e-06
3.07904e-06
3.15828e-06
3.21739e-06
3.23654e-06
3.24187e-06
3.2273e-06
3.1906e-06
3.14462e-06
3.08037e-06
3.00727e-06
2.92629e-06
2.83441e-06
2.7392e-06
2.63798e-06
2.53588e-06
2.43324e-06
2.32867e-06
2.22278e-06
2.11502e-06
2.0091e-06
1.90427e-06
1.80185e-06
1.70306e-06
1.60671e-06
1.51586e-06
1.4259e-06
1.33711e-06
1.2563e-06
1.17965e-06
1.11043e-06
1.04225e-06
9.7608e-07
9.21217e-07
8.68226e-07
8.17031e-07
7.7195e-07
7.29243e-07
6.96334e-07
6.64588e-07
6.35313e-07
6.09994e-07
5.89135e-07
5.72487e-07
5.58646e-07
5.48729e-07
5.40659e-07
5.36645e-07
5.34288e-07
5.36412e-07
5.4055e-07
5.48427e-07
5.58595e-07
5.7048e-07
5.83951e-07
5.99058e-07
6.16833e-07
6.3518e-07
6.55557e-07
6.76004e-07
6.9815e-07
7.20296e-07
7.42398e-07
7.6449e-07
7.8601e-07
8.07194e-07
8.27097e-07
8.45157e-07
8.62908e-07
8.7915e-07
8.95391e-07
9.06537e-07
9.1718e-07
9.2293e-07
9.25929e-07
9.25226e-07
9.18486e-07
9.09982e-07
8.91485e-07
8.72989e-07
8.41431e-07
8.0947e-07
7.87966e-07
7.64719e-07
7.41471e-07
7.18224e-07
6.88846e-07
6.58301e-07
6.27755e-07
5.95315e-07
5.58001e-07
5.20687e-07
4.82669e-07
4.39479e-07
3.9629e-07
3.50811e-07
3.02418e-07
2.52502e-07
1.98669e-07
1.40543e-07
1.10084e-07
7.6282e-08
4.01739e-08
0
)


113
(
0
4.0951e-07
7.35772e-07
1.00913e-06
1.2489e-06
1.46234e-06
1.65147e-06
1.81616e-06
1.9639e-06
2.09697e-06
2.20592e-06
2.30104e-06
2.38527e-06
2.44646e-06
2.49903e-06
2.53923e-06
2.56442e-06
2.58306e-06
2.58805e-06
2.58556e-06
2.57644e-06
2.55662e-06
2.53306e-06
2.50222e-06
2.46631e-06
2.42742e-06
2.3824e-06
2.33542e-06
2.28564e-06
2.23312e-06
2.17945e-06
2.12399e-06
2.06779e-06
2.01108e-06
1.95363e-06
1.89653e-06
1.83988e-06
1.78416e-06
1.72904e-06
1.67512e-06
1.62266e-06
1.57114e-06
1.52184e-06
1.47848e-06
1.44082e-06
1.39923e-06
1.35673e-06
1.31299e-06
1.27107e-06
1.23301e-06
1.19222e-06
1.14835e-06
1.1161e-06
1.09161e-06
1.0669e-06
1.0421e-06
1.01926e-06
9.97218e-07
9.78395e-07
9.61018e-07
9.4575e-07
9.31776e-07
9.19373e-07
9.08422e-07
8.98439e-07
8.90038e-07
8.81884e-07
8.74609e-07
8.67425e-07
8.62449e-07
8.57473e-07
8.5299e-07
8.48602e-07
8.44084e-07
8.39489e-07
8.34456e-07
8.28792e-07
8.22785e-07
8.1511e-07
8.07435e-07
7.97016e-07
7.86326e-07
7.73047e-07
7.58311e-07
7.41662e-07
7.2189e-07
7.0123e-07
6.75542e-07
6.49854e-07
6.17796e-07
5.85542e-07
5.668e-07
5.47232e-07
5.27664e-07
5.08096e-07
4.85644e-07
4.62643e-07
4.39643e-07
4.15696e-07
3.89318e-07
3.6294e-07
3.36147e-07
3.06305e-07
2.76463e-07
2.44936e-07
2.11264e-07
1.76357e-07
1.38278e-07
9.70399e-08
7.54271e-08
5.17453e-08
2.68455e-08
0
)


113
(
0
2.58974e-07
4.77286e-07
6.65096e-07
8.31964e-07
9.82217e-07
1.11748e-06
1.23856e-06
1.3503e-06
1.45408e-06
1.5453e-06
1.62944e-06
1.70801e-06
1.77473e-06
1.8369e-06
1.89253e-06
1.93988e-06
1.98354e-06
2.01925e-06
2.05032e-06
2.07728e-06
2.09709e-06
2.11238e-06
2.11707e-06
2.12128e-06
2.12511e-06
2.12326e-06
2.11931e-06
2.11235e-06
2.10182e-06
2.0896e-06
2.07431e-06
2.057e-06
2.03834e-06
2.01692e-06
1.99449e-06
1.97072e-06
1.94531e-06
1.9192e-06
1.89197e-06
1.86391e-06
1.83538e-06
1.80606e-06
1.77643e-06
1.74649e-06
1.71624e-06
1.68591e-06
1.65548e-06
1.62508e-06
1.59474e-06
1.56455e-06
1.53452e-06
1.50478e-06
1.47522e-06
1.44608e-06
1.41713e-06
1.38869e-06
1.36046e-06
1.33276e-06
1.3053e-06
1.27833e-06
1.25166e-06
1.22539e-06
1.19947e-06
1.17381e-06
1.14856e-06
1.12344e-06
1.09873e-06
1.07403e-06
1.04968e-06
1.02533e-06
1.0011e-06
9.76887e-07
9.526e-07
9.28269e-07
9.0377e-07
8.79029e-07
8.53845e-07
8.26499e-07
7.99153e-07
7.72809e-07
7.46565e-07
7.19408e-07
6.91737e-07
6.63397e-07
6.33964e-07
6.04218e-07
5.72705e-07
5.41191e-07
5.07369e-07
4.73475e-07
4.55506e-07
4.37213e-07
4.1892e-07
4.00628e-07
3.81044e-07
3.61214e-07
3.41385e-07
3.21049e-07
2.99412e-07
2.77776e-07
2.55879e-07
2.32071e-07
2.08263e-07
1.83327e-07
1.56955e-07
1.29791e-07
1.00589e-07
6.95576e-08
5.34772e-08
3.6325e-08
1.8598e-08
0
)


113
(
0
1.53122e-07
2.89574e-07
4.11696e-07
5.22957e-07
6.25075e-07
7.18605e-07
8.03831e-07
8.83599e-07
9.58736e-07
1.02668e-06
1.09068e-06
1.15157e-06
1.206e-06
1.258e-06
1.30648e-06
1.35054e-06
1.39263e-06
1.43043e-06
1.46568e-06
1.49868e-06
1.52762e-06
1.55502e-06
1.57929e-06
1.60104e-06
1.62129e-06
1.63791e-06
1.6531e-06
1.66624e-06
1.67677e-06
1.686e-06
1.69282e-06
1.69788e-06
1.70177e-06
1.70301e-06
1.70317e-06
1.7019e-06
1.69863e-06
1.69442e-06
1.6886e-06
1.68137e-06
1.67328e-06
1.6635e-06
1.65277e-06
1.64114e-06
1.62803e-06
1.61445e-06
1.59937e-06
1.58377e-06
1.56709e-06
1.5497e-06
1.53152e-06
1.5125e-06
1.49293e-06
1.47247e-06
1.45159e-06
1.42985e-06
1.40776e-06
1.38488e-06
1.36165e-06
1.33777e-06
1.31349e-06
1.2887e-06
1.26344e-06
1.23784e-06
1.21168e-06
1.18532e-06
1.15831e-06
1.13126e-06
1.10344e-06
1.07563e-06
1.04717e-06
1.0186e-06
9.89558e-07
9.60247e-07
9.3064e-07
9.00605e-07
8.70446e-07
8.39679e-07
8.08911e-07
7.7745e-07
7.45919e-07
7.13863e-07
6.81511e-07
6.48811e-07
6.1554e-07
5.82109e-07
5.47766e-07
5.13423e-07
4.77816e-07
4.42169e-07
4.23729e-07
4.05093e-07
3.86458e-07
3.67823e-07
3.48334e-07
3.28683e-07
3.09031e-07
2.89029e-07
2.68122e-07
2.47215e-07
2.2613e-07
2.0373e-07
1.81329e-07
1.58199e-07
1.34139e-07
1.09611e-07
8.38774e-08
5.7159e-08
4.34999e-08
2.93096e-08
1.48514e-08
0
)


113
(
0
7.31941e-08
1.41587e-07
2.05388e-07
2.65376e-07
3.21925e-07
3.75037e-07
4.24595e-07
4.7171e-07
5.16719e-07
5.58336e-07
5.98034e-07
6.36224e-07
6.71214e-07
7.04983e-07
7.36995e-07
7.66784e-07
7.95574e-07
8.22206e-07
8.4755e-07
8.71753e-07
8.93905e-07
9.15272e-07
9.35052e-07
9.5354e-07
9.71262e-07
9.87105e-07
1.0022e-06
1.01622e-06
1.02884e-06
1.04077e-06
1.05138e-06
1.06101e-06
1.06998e-06
1.07744e-06
1.08426e-06
1.09023e-06
1.09498e-06
1.09913e-06
1.10227e-06
1.10449e-06
1.10612e-06
1.1066e-06
1.1064e-06
1.10556e-06
1.1036e-06
1.10128e-06
1.09777e-06
1.09383e-06
1.08899e-06
1.08352e-06
1.07736e-06
1.07041e-06
1.06294e-06
1.05458e-06
1.04581e-06
1.03613e-06
1.02607e-06
1.01513e-06
1.00379e-06
9.91675e-07
9.79077e-07
9.6583e-07
9.51986e-07
9.37676e-07
9.22604e-07
9.07267e-07
8.90987e-07
8.74659e-07
8.57185e-07
8.3971e-07
8.2124e-07
8.0258e-07
7.83174e-07
7.6333e-07
7.42996e-07
7.21955e-07
7.00705e-07
6.78434e-07
6.56164e-07
6.32727e-07
6.09175e-07
5.84758e-07
5.59853e-07
5.34399e-07
5.08049e-07
4.81465e-07
4.53548e-07
4.25632e-07
3.96057e-07
3.66431e-07
3.5091e-07
3.35166e-07
3.19422e-07
3.03677e-07
2.87094e-07
2.7035e-07
2.53607e-07
2.36569e-07
2.18777e-07
2.00985e-07
1.83065e-07
1.64212e-07
1.45358e-07
1.2606e-07
1.06195e-07
8.60801e-08
6.53236e-08
4.40976e-08
3.33433e-08
2.23559e-08
1.12573e-08
0
)


113
(
0
5.87007e-09
1.15942e-08
1.71654e-08
2.25979e-08
2.78963e-08
3.30505e-08
3.80418e-08
4.29125e-08
4.76764e-08
5.22547e-08
5.67189e-08
6.10935e-08
6.52623e-08
6.93469e-08
7.33102e-08
7.71095e-08
8.08331e-08
8.43877e-08
8.78358e-08
9.11896e-08
9.43652e-08
9.74704e-08
1.00431e-07
1.0327e-07
1.06036e-07
1.08618e-07
1.11124e-07
1.1352e-07
1.1577e-07
1.17946e-07
1.1998e-07
1.21905e-07
1.23757e-07
1.25437e-07
1.27041e-07
1.28547e-07
1.29906e-07
1.31192e-07
1.32354e-07
1.33399e-07
1.34371e-07
1.35194e-07
1.35927e-07
1.36575e-07
1.37071e-07
1.37519e-07
1.37801e-07
1.38022e-07
1.38113e-07
1.38112e-07
1.38009e-07
1.37786e-07
1.37484e-07
1.37044e-07
1.36538e-07
1.35885e-07
1.35172e-07
1.34311e-07
1.33384e-07
1.32322e-07
1.31176e-07
1.29915e-07
1.28547e-07
1.27093e-07
1.25498e-07
1.23853e-07
1.22028e-07
1.20194e-07
1.18136e-07
1.16078e-07
1.1382e-07
1.11524e-07
1.09077e-07
1.06541e-07
1.03905e-07
1.01124e-07
9.83011e-08
9.52706e-08
9.224e-08
8.89775e-08
8.5692e-08
8.2241e-08
7.86968e-08
7.50537e-08
7.1249e-08
6.74053e-08
6.33404e-08
5.92755e-08
5.49617e-08
5.06402e-08
4.83853e-08
4.61007e-08
4.38161e-08
4.15314e-08
3.91489e-08
3.67478e-08
3.43467e-08
3.19157e-08
2.94081e-08
2.69005e-08
2.43816e-08
2.17799e-08
1.91783e-08
1.65418e-08
1.38612e-08
1.1163e-08
8.41982e-09
5.64652e-09
4.25088e-09
2.8412e-09
1.42509e-09
0
)

)


10
(

113
(
0
1.72997e-06
3.68254e-06
5.51129e-06
7.0774e-06
8.23876e-06
8.85417e-06
8.82198e-06
8.13929e-06
6.9473e-06
5.50143e-06
4.07061e-06
2.84795e-06
1.92313e-06
1.29196e-06
8.99222e-07
6.59434e-07
4.99736e-07
3.9104e-07
3.14813e-07
2.59585e-07
2.18285e-07
1.86474e-07
1.61943e-07
1.41679e-07
1.24587e-07
1.09885e-07
9.69887e-08
8.54782e-08
7.50633e-08
6.55481e-08
5.67986e-08
4.87251e-08
4.12972e-08
3.44875e-08
2.83187e-08
2.27795e-08
1.79025e-08
1.3699e-08
1.01897e-08
7.36889e-09
5.23696e-09
3.71211e-09
2.67643e-09
2.01042e-09
1.61732e-09
1.43221e-09
1.4165e-09
1.56136e-09
1.85898e-09
2.30803e-09
2.92435e-09
3.73147e-09
4.76423e-09
6.06511e-09
7.84615e-09
1.02504e-08
1.3479e-08
1.77528e-08
2.41962e-08
3.41825e-08
4.84301e-08
6.88195e-08
1.04939e-07
1.55793e-07
2.27034e-07
3.44069e-07
4.89815e-07
6.93118e-07
9.55191e-07
1.25134e-06
1.63509e-06
2.03989e-06
2.49718e-06
2.97235e-06
3.46512e-06
3.95411e-06
4.44163e-06
4.88947e-06
5.32746e-06
5.69402e-06
6.0363e-06
6.29776e-06
6.50979e-06
6.6432e-06
6.69711e-06
6.68702e-06
6.56627e-06
6.40862e-06
6.11317e-06
5.78099e-06
5.57229e-06
5.3636e-06
5.13763e-06
4.8804e-06
4.62317e-06
4.35409e-06
4.06052e-06
3.76694e-06
3.46004e-06
3.14177e-06
2.82299e-06
2.49115e-06
2.15931e-06
1.82424e-06
1.48865e-06
1.15778e-06
8.33156e-07
5.21009e-07
3.7109e-07
2.31099e-07
1.02853e-07
0
)


113
(
0
1.72617e-06
3.43576e-06
4.8916e-06
6.02846e-06
6.78112e-06
7.12449e-06
7.08315e-06
6.72425e-06
6.13585e-06
5.4072e-06
4.61997e-06
3.83918e-06
3.11049e-06
2.46233e-06
1.92042e-06
1.48799e-06
1.14381e-06
8.75457e-07
6.7041e-07
5.16494e-07
4.02165e-07
3.17091e-07
2.57381e-07
2.11117e-07
1.75604e-07
1.47921e-07
1.25744e-07
1.07696e-07
9.28248e-08
8.01841e-08
6.93557e-08
5.98702e-08
5.15591e-08
4.42328e-08
3.77462e-08
3.20313e-08
2.69951e-08
2.25849e-08
1.87663e-08
1.55045e-08
1.27666e-08
1.05179e-08
8.73152e-09
7.36864e-09
6.42152e-09
5.87638e-09
5.76648e-09
6.14263e-09
7.11751e-09
8.78412e-09
1.13717e-08
1.51547e-08
2.04584e-08
2.76382e-08
3.82647e-08
5.30625e-08
7.26585e-08
9.77283e-08
1.32478e-07
1.78949e-07
2.36377e-07
3.07866e-07
4.03657e-07
5.16111e-07
6.50153e-07
8.19417e-07
1.00752e-06
1.23062e-06
1.48499e-06
1.7575e-06
2.07485e-06
2.40342e-06
2.76016e-06
3.12792e-06
3.50654e-06
3.88506e-06
4.26354e-06
4.61845e-06
4.96693e-06
5.26574e-06
5.54612e-06
5.76515e-06
5.945e-06
6.06255e-06
6.11559e-06
6.1167e-06
6.02518e-06
5.90279e-06
5.65972e-06
5.38271e-06
5.20478e-06
5.02684e-06
4.83175e-06
4.60562e-06
4.37948e-06
4.14082e-06
3.87627e-06
3.61171e-06
3.33213e-06
3.03976e-06
2.74673e-06
2.43712e-06
2.12751e-06
1.81157e-06
1.49453e-06
1.17859e-06
8.64973e-07
5.58199e-07
4.0913e-07
2.66365e-07
1.30912e-07
0
)


113
(
0
1.34318e-06
2.46056e-06
3.37033e-06
4.07587e-06
4.58213e-06
4.90511e-06
5.04679e-06
5.04284e-06
4.92272e-06
4.71271e-06
4.43897e-06
4.12227e-06
3.77846e-06
3.42193e-06
3.06746e-06
2.72069e-06
2.39653e-06
2.09201e-06
1.81257e-06
1.56093e-06
1.33209e-06
1.13342e-06
9.61448e-07
8.11477e-07
6.82491e-07
5.7304e-07
4.79924e-07
4.0048e-07
3.338e-07
2.78817e-07
2.32772e-07
1.94851e-07
1.6361e-07
1.37529e-07
1.17256e-07
1.00456e-07
8.71299e-08
7.66689e-08
6.88445e-08
6.36778e-08
6.05872e-08
5.98957e-08
6.1393e-08
6.52205e-08
7.13795e-08
8.0281e-08
9.23991e-08
1.07596e-07
1.26786e-07
1.50413e-07
1.78433e-07
2.11816e-07
2.51061e-07
2.9592e-07
3.49623e-07
4.11567e-07
4.81254e-07
5.58789e-07
6.48581e-07
7.4977e-07
8.60107e-07
9.81106e-07
1.11814e-06
1.26441e-06
1.42205e-06
1.59532e-06
1.7763e-06
1.97096e-06
2.17523e-06
2.38508e-06
2.60701e-06
2.83118e-06
3.0606e-06
3.28962e-06
3.51825e-06
3.73967e-06
3.95829e-06
4.15732e-06
4.35186e-06
4.51557e-06
4.6683e-06
4.78443e-06
4.87758e-06
4.93419e-06
4.95185e-06
4.93816e-06
4.86609e-06
4.77456e-06
4.6031e-06
4.40706e-06
4.28041e-06
4.15377e-06
4.01344e-06
3.84836e-06
3.68329e-06
3.50655e-06
3.30569e-06
3.10484e-06
2.88695e-06
2.65454e-06
2.42145e-06
2.171e-06
1.92055e-06
1.65719e-06
1.39153e-06
1.11726e-06
8.42009e-07
5.67147e-07
4.30914e-07
2.96073e-07
1.58006e-07
0
)


113
(
0
9.09544e-07
1.59412e-06
2.16705e-06
2.64547e-06
3.02826e-06
3.3184e-06
3.52361e-06
3.65377e-06
3.71918e-06
3.72956e-06
3.69371e-06
3.62209e-06
3.5225e-06
3.39679e-06
3.24639e-06
3.07964e-06
2.90488e-06
2.72402e-06
2.54075e-06
2.35936e-06
2.1821e-06
2.00614e-06
1.84372e-06
1.68748e-06
1.53701e-06
1.39767e-06
1.26907e-06
1.15006e-06
1.04037e-06
9.39304e-07
8.50862e-07
7.6861e-07
6.98048e-07
6.35804e-07
5.81895e-07
5.3515e-07
4.98066e-07
4.67566e-07
4.43388e-07
4.27462e-07
4.17121e-07
4.144e-07
4.17647e-07
4.27011e-07
4.42114e-07
4.62619e-07
4.89794e-07
5.23941e-07
5.62739e-07
6.0816e-07
6.58849e-07
7.15547e-07
7.78465e-07
8.4657e-07
9.22023e-07
1.00284e-06
1.0893e-06
1.18142e-06
1.28059e-06
1.38427e-06
1.49242e-06
1.6065e-06
1.72588e-06
1.8486e-06
1.97555e-06
2.10611e-06
2.23827e-06
2.37304e-06
2.50877e-06
2.64505e-06
2.7801e-06
2.91394e-06
3.04432e-06
3.17028e-06
3.29188e-06
3.4043e-06
3.51315e-06
3.60496e-06
3.69316e-06
3.75814e-06
3.81639e-06
3.85224e-06
3.87343e-06
3.8713e-06
3.84431e-06
3.79731e-06
3.71334e-06
3.61704e-06
3.47707e-06
3.32182e-06
3.22632e-06
3.13083e-06
3.02643e-06
2.90593e-06
2.78542e-06
2.6572e-06
2.51301e-06
2.36882e-06
2.21315e-06
2.04769e-06
1.88156e-06
1.69845e-06
1.51533e-06
1.32117e-06
1.12501e-06
9.20443e-07
7.1246e-07
4.98006e-07
3.87668e-07
2.70478e-07
1.44298e-07
0
)


113
(
0
6.00165e-07
1.05e-06
1.42276e-06
1.74514e-06
2.02218e-06
2.25588e-06
2.44841e-06
2.60257e-06
2.72166e-06
2.80908e-06
2.86817e-06
2.90204e-06
2.91359e-06
2.9055e-06
2.87925e-06
2.83706e-06
2.78311e-06
2.71934e-06
2.64749e-06
2.56917e-06
2.48591e-06
2.39909e-06
2.30989e-06
2.21915e-06
2.13374e-06
2.04945e-06
1.96478e-06
1.88122e-06
1.80033e-06
1.72257e-06
1.64666e-06
1.57679e-06
1.51374e-06
1.45557e-06
1.4026e-06
1.35261e-06
1.31407e-06
1.27629e-06
1.24805e-06
1.22513e-06
1.20606e-06
1.195e-06
1.18985e-06
1.18858e-06
1.19488e-06
1.20743e-06
1.22218e-06
1.24463e-06
1.27315e-06
1.30588e-06
1.34221e-06
1.38351e-06
1.42995e-06
1.48008e-06
1.53471e-06
1.59358e-06
1.65505e-06
1.71874e-06
1.78708e-06
1.85794e-06
1.93022e-06
2.00364e-06
2.07904e-06
2.15513e-06
2.23193e-06
2.30807e-06
2.38393e-06
2.4594e-06
2.5322e-06
2.60345e-06
2.66961e-06
2.73324e-06
2.78996e-06
2.84177e-06
2.88876e-06
2.92699e-06
2.96183e-06
2.98666e-06
3.00919e-06
3.01578e-06
3.01771e-06
3.00414e-06
2.98172e-06
2.94519e-06
2.8945e-06
2.83242e-06
2.74954e-06
2.65973e-06
2.54088e-06
2.41294e-06
2.33838e-06
2.26382e-06
2.18399e-06
2.09463e-06
2.00527e-06
1.91139e-06
1.80814e-06
1.7049e-06
1.59499e-06
1.47941e-06
1.36343e-06
1.23732e-06
1.1112e-06
9.77173e-07
8.41694e-07
6.96894e-07
5.46385e-07
3.85628e-07
3.00703e-07
2.08549e-07
1.09556e-07
0
)


113
(
0
3.92124e-07
7.01134e-07
9.59011e-07
1.18461e-06
1.38395e-06
1.56048e-06
1.71653e-06
1.85386e-06
1.97388e-06
2.07787e-06
2.16696e-06
2.24225e-06
2.30473e-06
2.35538e-06
2.39443e-06
2.42253e-06
2.44192e-06
2.45346e-06
2.45795e-06
2.45615e-06
2.44882e-06
2.43664e-06
2.41983e-06
2.39978e-06
2.37706e-06
2.35223e-06
2.32579e-06
2.29823e-06
2.27001e-06
2.24156e-06
2.21326e-06
2.18548e-06
2.15855e-06
2.133e-06
2.10864e-06
2.08594e-06
2.06509e-06
2.04625e-06
2.0296e-06
2.01524e-06
2.00337e-06
1.99404e-06
1.98893e-06
1.99695e-06
2.00171e-06
2.00508e-06
2.00755e-06
2.01124e-06
2.01357e-06
2.01719e-06
2.02515e-06
2.03849e-06
2.05384e-06
2.06483e-06
2.06344e-06
2.05621e-06
2.07909e-06
2.13331e-06
2.15693e-06
2.18122e-06
2.20587e-06
2.23079e-06
2.25563e-06
2.28017e-06
2.30426e-06
2.32646e-06
2.34787e-06
2.36808e-06
2.3863e-06
2.40338e-06
2.41645e-06
2.42804e-06
2.43566e-06
2.44e-06
2.44109e-06
2.4365e-06
2.42972e-06
2.4145e-06
2.39762e-06
2.37083e-06
2.34125e-06
2.30232e-06
2.2582e-06
2.20582e-06
2.14534e-06
2.07835e-06
1.99978e-06
1.91733e-06
1.81914e-06
1.71612e-06
1.659e-06
1.60188e-06
1.542e-06
1.47715e-06
1.4123e-06
1.34503e-06
1.27276e-06
1.2005e-06
1.12437e-06
1.04493e-06
9.65228e-07
8.78541e-07
7.91853e-07
6.98482e-07
6.0388e-07
5.00499e-07
3.92019e-07
2.74992e-07
2.13012e-07
1.46315e-07
7.57785e-08
0
)


113
(
0
2.55736e-07
4.70939e-07
6.56688e-07
8.22526e-07
9.72093e-07
1.10796e-06
1.23215e-06
1.34618e-06
1.4512e-06
1.54808e-06
1.63751e-06
1.72002e-06
1.79606e-06
1.86603e-06
1.92988e-06
1.98773e-06
2.04058e-06
2.08873e-06
2.13246e-06
2.17201e-06
2.20767e-06
2.23965e-06
2.25793e-06
2.28028e-06
2.30087e-06
2.31876e-06
2.33414e-06
2.34724e-06
2.35825e-06
2.36737e-06
2.37477e-06
2.38063e-06
2.38512e-06
2.38839e-06
2.39057e-06
2.39182e-06
2.39226e-06
2.39201e-06
2.39117e-06
2.38983e-06
2.38804e-06
2.38589e-06
2.38345e-06
2.38077e-06
2.37787e-06
2.3748e-06
2.37158e-06
2.3682e-06
2.36469e-06
2.36102e-06
2.35721e-06
2.35322e-06
2.34903e-06
2.34462e-06
2.33988e-06
2.33479e-06
2.32933e-06
2.32348e-06
2.31701e-06
2.30988e-06
2.30217e-06
2.29373e-06
2.28414e-06
2.27378e-06
2.26243e-06
2.24947e-06
2.23563e-06
2.2201e-06
2.20288e-06
2.18468e-06
2.16346e-06
2.14123e-06
2.11629e-06
2.08928e-06
2.06021e-06
2.02778e-06
1.99403e-06
1.95601e-06
1.91706e-06
1.87199e-06
1.82549e-06
1.77424e-06
1.72042e-06
1.66253e-06
1.60076e-06
1.53585e-06
1.46546e-06
1.39324e-06
1.31352e-06
1.23145e-06
1.18765e-06
1.14386e-06
1.09862e-06
1.05077e-06
1.00291e-06
9.53644e-07
9.01468e-07
8.49292e-07
7.94573e-07
7.37689e-07
6.80605e-07
6.18488e-07
5.56371e-07
4.89303e-07
4.21325e-07
3.47132e-07
2.6965e-07
1.86902e-07
1.43532e-07
9.7695e-08
5.00194e-08
0
)


113
(
0
1.63089e-07
3.08997e-07
4.40508e-07
5.61299e-07
6.72759e-07
7.7604e-07
8.722e-07
9.62143e-07
1.04661e-06
1.1262e-06
1.20138e-06
1.27252e-06
1.33992e-06
1.40385e-06
1.46428e-06
1.52126e-06
1.57534e-06
1.62666e-06
1.67531e-06
1.7214e-06
1.76501e-06
1.80622e-06
1.84475e-06
1.88108e-06
1.91526e-06
1.94735e-06
1.9774e-06
2.00548e-06
2.03163e-06
2.05589e-06
2.07833e-06
2.09899e-06
2.11791e-06
2.13514e-06
2.15069e-06
2.16463e-06
2.17703e-06
2.18791e-06
2.19731e-06
2.20528e-06
2.21179e-06
2.21689e-06
2.22064e-06
2.22307e-06
2.22419e-06
2.22403e-06
2.22261e-06
2.21987e-06
2.21584e-06
2.21059e-06
2.20413e-06
2.19649e-06
2.18769e-06
2.17776e-06
2.16639e-06
2.15381e-06
2.14013e-06
2.1254e-06
2.10921e-06
2.09175e-06
2.07326e-06
2.05358e-06
2.03227e-06
2.01e-06
1.98652e-06
1.96133e-06
1.93526e-06
1.90761e-06
1.87854e-06
1.84865e-06
1.81647e-06
1.78358e-06
1.74883e-06
1.71275e-06
1.67538e-06
1.63601e-06
1.59588e-06
1.55311e-06
1.50985e-06
1.46376e-06
1.41693e-06
1.36764e-06
1.31704e-06
1.26436e-06
1.20969e-06
1.15342e-06
1.09426e-06
1.03415e-06
9.69921e-07
9.04318e-07
8.69911e-07
8.35504e-07
8.00202e-07
7.6328e-07
7.26358e-07
6.88524e-07
6.48804e-07
6.09085e-07
5.67694e-07
5.2488e-07
4.81938e-07
4.35759e-07
3.89579e-07
3.40386e-07
2.90641e-07
2.3739e-07
1.82433e-07
1.24831e-07
9.50766e-08
6.42197e-08
3.25852e-08
0
)


113
(
0
8.70329e-08
1.68676e-07
2.45246e-07
3.17663e-07
3.8617e-07
4.51002e-07
5.12431e-07
5.70731e-07
6.26157e-07
6.78931e-07
7.29244e-07
7.77259e-07
8.23111e-07
8.66921e-07
9.08659e-07
9.48335e-07
9.86269e-07
1.02253e-06
1.05718e-06
1.09026e-06
1.12184e-06
1.15193e-06
1.18039e-06
1.20747e-06
1.23322e-06
1.25765e-06
1.2808e-06
1.30269e-06
1.32333e-06
1.34276e-06
1.36098e-06
1.37801e-06
1.39388e-06
1.40859e-06
1.42214e-06
1.43457e-06
1.4459e-06
1.45614e-06
1.46531e-06
1.47341e-06
1.48042e-06
1.48638e-06
1.49129e-06
1.49519e-06
1.49806e-06
1.49994e-06
1.50081e-06
1.50064e-06
1.49942e-06
1.49723e-06
1.49406e-06
1.48994e-06
1.48488e-06
1.47892e-06
1.47179e-06
1.4637e-06
1.45474e-06
1.44493e-06
1.43399e-06
1.42205e-06
1.40932e-06
1.39567e-06
1.3808e-06
1.36519e-06
1.3487e-06
1.33094e-06
1.31255e-06
1.29302e-06
1.27247e-06
1.25135e-06
1.22862e-06
1.2054e-06
1.1809e-06
1.15549e-06
1.12919e-06
1.10153e-06
1.07336e-06
1.04339e-06
1.01309e-06
9.80866e-07
9.48138e-07
9.13724e-07
8.78411e-07
8.41669e-07
8.03552e-07
7.64329e-07
7.2312e-07
6.8125e-07
6.36577e-07
5.90993e-07
5.67138e-07
5.43283e-07
5.1886e-07
4.93411e-07
4.67962e-07
4.4197e-07
4.14857e-07
3.87743e-07
3.59709e-07
3.30892e-07
3.0201e-07
2.71499e-07
2.40987e-07
2.09093e-07
1.76947e-07
1.43334e-07
1.09064e-07
7.38049e-08
5.58344e-08
3.74905e-08
1.88946e-08
0
)


113
(
0
7.86227e-09
1.55297e-08
2.29949e-08
3.02794e-08
3.738e-08
4.42938e-08
5.10213e-08
5.75649e-08
6.3928e-08
7.01143e-08
7.61269e-08
8.1969e-08
8.76428e-08
9.31506e-08
9.84821e-08
1.0363e-07
1.08616e-07
1.13443e-07
1.1811e-07
1.22619e-07
1.26971e-07
1.31165e-07
1.35179e-07
1.39039e-07
1.42747e-07
1.46301e-07
1.49704e-07
1.52955e-07
1.56054e-07
1.59003e-07
1.61802e-07
1.64451e-07
1.66951e-07
1.69302e-07
1.71501e-07
1.73553e-07
1.7546e-07
1.77222e-07
1.78839e-07
1.80312e-07
1.81637e-07
1.82817e-07
1.83855e-07
1.8475e-07
1.85504e-07
1.86116e-07
1.86589e-07
1.86913e-07
1.87089e-07
1.87125e-07
1.87021e-07
1.86779e-07
1.86401e-07
1.85891e-07
1.85212e-07
1.84391e-07
1.8344e-07
1.82364e-07
1.8112e-07
1.79726e-07
1.78214e-07
1.76565e-07
1.74729e-07
1.72784e-07
1.70704e-07
1.68433e-07
1.66065e-07
1.63524e-07
1.60831e-07
1.58048e-07
1.55025e-07
1.51927e-07
1.48637e-07
1.45213e-07
1.41658e-07
1.37905e-07
1.34076e-07
1.29993e-07
1.25862e-07
1.21468e-07
1.17006e-07
1.1232e-07
1.07521e-07
1.02542e-07
9.73997e-08
9.21259e-08
8.66322e-08
8.10652e-08
7.5212e-08
6.92734e-08
6.62048e-08
6.31363e-08
6.00196e-08
5.6816e-08
5.36125e-08
5.03674e-08
4.70364e-08
4.37055e-08
4.03112e-08
3.68628e-08
3.34104e-08
2.98564e-08
2.63025e-08
2.26703e-08
1.90239e-08
1.53013e-08
1.1547e-08
7.74601e-09
5.83003e-09
3.89783e-09
1.95504e-09
0
)

)


10
(

113
(
0
1.94208e-06
4.05e-06
5.91184e-06
7.36118e-06
8.2086e-06
8.3072e-06
7.63075e-06
6.36811e-06
4.87409e-06
3.44982e-06
2.31583e-06
1.5175e-06
1.00215e-06
7.23692e-07
5.31333e-07
4.025e-07
3.18308e-07
2.60667e-07
2.17333e-07
1.88077e-07
1.63e-07
1.42e-07
1.25538e-07
1.13231e-07
1.0135e-07
9.0975e-08
8.185e-08
7.365e-08
6.62083e-08
5.92917e-08
5.23818e-08
4.63333e-08
4.065e-08
3.50455e-08
2.95455e-08
2.44364e-08
1.96727e-08
1.54e-08
1.17636e-08
8.81455e-09
6.416e-09
4.89818e-09
3.968e-09
3.63182e-09
3.79909e-09
4.47636e-09
5.69e-09
7.45333e-09
9.97e-09
1.35315e-08
1.87417e-08
2.61615e-08
3.60571e-08
4.98429e-08
7.18571e-08
1.03357e-07
1.46e-07
2.16667e-07
3.0825e-07
4.2075e-07
5.94e-07
7.9875e-07
1.06125e-06
1.37882e-06
1.72e-06
2.12e-06
2.53222e-06
2.99333e-06
3.46556e-06
3.95444e-06
4.43421e-06
4.90789e-06
5.35947e-06
5.80158e-06
6.186e-06
6.556e-06
6.866e-06
7.161e-06
7.384e-06
7.589e-06
7.714e-06
7.819e-06
7.82737e-06
7.81158e-06
7.6885e-06
7.5535e-06
7.295e-06
7.01222e-06
6.63444e-06
6.22529e-06
5.98412e-06
5.74294e-06
5.49438e-06
5.21625e-06
4.93813e-06
4.66e-06
4.35333e-06
4.04667e-06
3.74e-06
3.3775e-06
3.015e-06
2.65727e-06
2.30273e-06
1.94778e-06
1.59222e-06
1.23271e-06
8.825e-07
5.8e-07
4.28125e-07
2.615e-07
1.19175e-07
0
)


113
(
0
1.87773e-06
3.63307e-06
5.02671e-06
6.00086e-06
6.5023e-06
6.54948e-06
6.22371e-06
5.6398e-06
4.91214e-06
4.13534e-06
3.37845e-06
2.685e-06
2.08271e-06
1.60038e-06
1.21955e-06
9.23727e-07
6.99377e-07
5.28411e-07
4.09733e-07
3.25197e-07
2.60416e-07
2.1269e-07
1.76797e-07
1.49755e-07
1.29007e-07
1.12146e-07
9.81605e-08
8.63402e-08
7.62063e-08
6.74713e-08
5.96818e-08
5.27376e-08
4.64295e-08
4.06813e-08
3.55025e-08
3.0859e-08
2.67316e-08
2.31412e-08
2.01759e-08
1.78401e-08
1.61503e-08
1.53063e-08
1.53458e-08
1.65789e-08
1.91806e-08
2.35523e-08
3.0229e-08
3.95503e-08
5.22909e-08
7.10508e-08
9.53877e-08
1.27425e-07
1.6777e-07
2.20103e-07
2.88165e-07
3.69959e-07
4.66451e-07
5.93365e-07
7.3911e-07
9.03688e-07
1.10687e-06
1.32776e-06
1.57995e-06
1.86353e-06
2.16056e-06
2.49948e-06
2.84486e-06
3.21613e-06
3.59453e-06
3.98362e-06
4.37268e-06
4.76171e-06
5.13665e-06
5.50555e-06
5.84152e-06
6.16925e-06
6.44718e-06
6.71267e-06
6.91467e-06
7.10079e-06
7.21192e-06
7.30431e-06
7.31426e-06
7.30359e-06
7.19365e-06
7.07268e-06
6.85147e-06
6.6087e-06
6.2721e-06
5.90633e-06
5.6894e-06
5.47247e-06
5.247e-06
4.98737e-06
4.72774e-06
4.46812e-06
4.17294e-06
3.87776e-06
3.58259e-06
3.26207e-06
2.94155e-06
2.61253e-06
2.27785e-06
1.94151e-06
1.60269e-06
1.26654e-06
9.33183e-07