/*--------------------------------*- C++ -*----------------------------------*\
| =========                 |                                                 |
| \\      /  F ield         | OpenFOAM: The Open Source CFD Toolbox           |
|  \\    /   O peration     | Version:  2.3.0                                 |
|   \\  /    A nd           | Web:      www.OpenFOAM.org                      |
|    \\/     M anipulation  |                                                 |
\*---------------------------------------------------------------------------*/
FoamFile
{
    version     2.0;
    format      ascii;
    class       dictionary;
    location    "constant";
    object      OH;
}
// * * * * * * * * * * * * * * * * * * * * * * * * * * * * * * * * * * * * * //

OH_table
13
(

10
(

113
(
0
1.33792e-07
3.50578e-07
6.9547e-07
1.21351e-06
1.99333e-06
3.21556e-06
5.44832e-06
9.09752e-06
1.42907e-05
2.41583e-05
3.90538e-05
5.79e-05
9.12962e-05
0.000134174
0.000190696
0.000272184
0.000367183
0.000497671
0.000655896
0.000838718
0.00106718
0.00131222
0.00159
0.00187568
0.00216522
0.00242609
0.00265385
0.00283398
0.00291528
0.00294425
0.00286925
0.00271723
0.00251409
0.00221849
0.0019112
0.00158842
0.00128715
0.00100643
0.000770987
0.000578019
0.000411584
0.000299783
0.000212934
0.00015006
0.000112615
8.17257e-05
6.46866e-05
5.00211e-05
4.03995e-05
3.25604e-05
2.67316e-05
2.215e-05
1.84e-05
1.55086e-05
1.30213e-05
1.1126e-05
9.47257e-06
8.21e-06
7.12304e-06
6.25829e-06
5.52971e-06
4.92e-06
4.42e-06
3.97102e-06
3.60528e-06
3.25642e-06
2.96743e-06
2.67982e-06
2.42527e-06
2.17073e-06
1.92475e-06
1.68041e-06
1.43959e-06
1.20086e-06
9.76719e-07
7.73594e-07
5.81982e-07
4.46584e-07
3.11186e-07
2.32855e-07
1.60167e-07
1.11458e-07
7.62372e-08
4.84529e-08
3.28027e-08
1.86076e-08
1.2658e-08
6.70849e-09
4.33474e-09
2.07158e-09
1.53497e-09
1.18624e-09
8.3752e-10
4.88796e-10
3.59382e-10
2.71742e-10
1.84101e-10
1.14e-10
8.9e-11
6.4e-11
4.08896e-11
3.16358e-11
2.23821e-11
1.52791e-11
1.09133e-11
7.03889e-12
4.42778e-12
2.32018e-12
1.41497e-12
7.27114e-13
2.08286e-13
0
)


113
(
0
2.21502e-07
6.40902e-07
1.4463e-06
2.89867e-06
5.3501e-06
9.4395e-06
1.66808e-05
2.75023e-05
4.19604e-05
6.56042e-05
9.7412e-05
0.000135634
0.000193861
0.000262392
0.00034575
0.000451992
0.000568848
0.000709593
0.000862982
0.00102758
0.00120474
0.00138312
0.001561
0.00172715
0.00188601
0.00201066
0.00211497
0.00219
0.00221934
0.00222496
0.00218433
0.00211172
0.00201784
0.00188427
0.0017396
0.00158023
0.00141262
0.00124476
0.00108016
0.0009255
0.000777912
0.000649413
0.000533837
0.000430677
0.000348757
0.000273371
0.000218104
0.00016878
0.000132082
0.000101748
7.85901e-05
6.08891e-05
4.68259e-05
3.67495e-05
2.85493e-05
2.28263e-05
1.8115e-05
1.47867e-05
1.20798e-05
1.00605e-05
8.46277e-06
7.17564e-06
6.17523e-06
5.30426e-06
4.64449e-06
4.02826e-06
3.56639e-06
3.10917e-06
2.76356e-06
2.41794e-06
2.13223e-06
1.85794e-06
1.61475e-06
1.38984e-06
1.18235e-06
9.99919e-07
8.24506e-07
6.83348e-07
5.42191e-07
4.37817e-07
3.37082e-07
2.5933e-07
1.94507e-07
1.40103e-07
1.02702e-07
6.80369e-08
4.8881e-08
2.97251e-08
2.06199e-08
1.18256e-08
9.38064e-09
7.55212e-09
5.7236e-09
3.89508e-09
3.01549e-09
2.31666e-09
1.61783e-09
1.04461e-09
7.94362e-10
5.44117e-10
3.13612e-10
2.27864e-10
1.42116e-10
8.08811e-11
5.08435e-11
2.59248e-11
1.41692e-11
6.49635e-12
3.8043e-12
2.17925e-12
8.9949e-13
0
)


113
(
0
3.38363e-06
8.99706e-06
1.78525e-05
3.03588e-05
4.70901e-05
6.93052e-05
9.8068e-05
0.000132463
0.000172009
0.000220845
0.000275742
0.000335402
0.000405131
0.000478253
0.000556256
0.000639508
0.000724556
0.000811973
0.000898615
0.000984569
0.00106603
0.00114462
0.00121647
0.00128045
0.00133971
0.0013842
0.00142169
0.00144908
0.00146274
0.00146928
0.00146195
0.00144469
0.00142078
0.00138228
0.00133876
0.00128859
0.00122975
0.00116769
0.00110103
0.00103175
0.000961169
0.000889671
0.000818451
0.000747499
0.000680169
0.000614012
0.000551763
0.000491911
0.000437155
0.000385985
0.000338858
0.000296063
0.000256156
0.000221569
0.000189487
0.000162324
0.000137172
0.000116446
9.77088e-05
8.20135e-05
6.81826e-05
5.64849e-05
4.67564e-05
3.82009e-05
3.1559e-05
2.53967e-05
2.09347e-05
1.65392e-05
1.37378e-05
1.09364e-05
8.99207e-06
7.21104e-06
5.8427e-06
4.71673e-06
3.7701e-06
3.08156e-06
2.43865e-06
2.01848e-06
1.59832e-06
1.31954e-06
1.05474e-06
8.53441e-07
6.87857e-07
5.44756e-07
4.38337e-07
3.37727e-07
2.70027e-07
2.02327e-07
1.58579e-07
1.15573e-07
1.00289e-07
8.69702e-08
7.36511e-08
6.0332e-08
5.14856e-08
4.34911e-08
3.54966e-08
2.83785e-08
2.3514e-08
1.86495e-08
1.40291e-08
1.11991e-08
8.36915e-09
6.04308e-09
4.35833e-09
2.85398e-09
1.81351e-09
1.00796e-09
6.73134e-10
4.23873e-10
2.02152e-10
0
)


113
(
0
1.74772e-05
3.66228e-05
5.94862e-05
8.58632e-05
0.000115539
0.0001486
0.00018521
0.000224214
0.000265252
0.000309321
0.000354797
0.000401379
0.00045049
0.000499491
0.000548336
0.000596585
0.000644374
0.000690645
0.000734553
0.000776365
0.000815077
0.000852458
0.000887033
0.000917131
0.000944594
0.000966375
0.000985595
0.00100113
0.00101123
0.00101855
0.00102053
0.00101892
0.00101489
0.00100481
0.000992419
0.000976961
0.000957084
0.000935339
0.000910652
0.000883551
0.00085501
0.000823866
0.00079129
0.000757336
0.000723061
0.000688565
0.000652759
0.000617115
0.000581814
0.000546895
0.000512406
0.000478431
0.000444798
0.00041268
0.000381275
0.00035149
0.000322366
0.000295744
0.000270246
0.00024621
0.000223072
0.000201638
0.000181777
0.000162943
0.000145784
0.000129375
0.000115621
0.000101953
9.03382e-05
7.87236e-05
6.92547e-05
6.01945e-05
5.23734e-05
4.52799e-05
3.88688e-05
3.34396e-05
2.82512e-05
2.42381e-05
2.02251e-05
1.72021e-05
1.42771e-05
1.18991e-05
9.82885e-06
8.0046e-06
6.58169e-06
5.22671e-06
4.25665e-06
3.28658e-06
2.64054e-06
2.00451e-06
1.7703e-06
1.56256e-06
1.35481e-06
1.14706e-06
1.00013e-06
8.64785e-07
7.29438e-07
6.07121e-07
5.18312e-07
4.29503e-07
3.44238e-07
2.84968e-07
2.25698e-07
1.74569e-07
1.33804e-07
9.61983e-08
6.67195e-08
4.14052e-08
2.99354e-08
1.97843e-08
9.9036e-09
0
)


113
(
0
2.82177e-05
5.43016e-05
8.08645e-05
0.000108504
0.000137253
0.000167081
0.000197824
0.000229023
0.000260557
0.000292315
0.000323962
0.000355523
0.000386449
0.000416941
0.000446809
0.000475507
0.000503601
0.000530173
0.000555605
0.000580024
0.00060226
0.000623566
0.000642916
0.000661053
0.00067846
0.000693542
0.000706913
0.00071782
0.000725674
0.000732373
0.000737601
0.000740718
0.000742426
0.000741242
0.000738917
0.00073508
0.000728823
0.000721559
0.000712726
0.00070231
0.000690969
0.000678053
0.000664283
0.000649693
0.000633305
0.000616565
0.000599749
0.000582283
0.000563435
0.000544252
0.000524689
0.000504983
0.000485181
0.00046487
0.00044432
0.000424419
0.000404784
0.000385306
0.000365898
0.000346527
0.000327179
0.000308469
0.00029035
0.000272743
0.000255973
0.00023937
0.000223357
0.000207397
0.00019272
0.000178043
0.000164623
0.000151441
0.000139222
0.000127569
0.000116362
0.000105797
9.55103e-05
8.65798e-05
7.76494e-05
6.99216e-05
6.23127e-05
5.54907e-05
4.91113e-05
4.31551e-05
3.78892e-05
3.2771e-05
2.84888e-05
2.42065e-05
2.07441e-05
1.7307e-05
1.58562e-05
1.44901e-05
1.3124e-05
1.17578e-05
1.06315e-05
9.55083e-06
8.47017e-06
7.45268e-06
6.59764e-06
5.7426e-06
4.90827e-06
4.22587e-06
3.54348e-06
2.91544e-06
2.35659e-06
1.81951e-06
1.33843e-06
8.82317e-07
6.61063e-07
4.44023e-07
2.25162e-07
0
)


113
(
0
2.85765e-05
5.38736e-05
7.76306e-05
0.000100759
0.00012358
0.000146224
0.000168701
0.00019101
0.000213151
0.000234877
0.000256245
0.000277332
0.000297593
0.000317445
0.00033671
0.000355062
0.00037297
0.000389826
0.000405964
0.000421463
0.000435674
0.000449357
0.000461943
0.000473563
0.000484609
0.000494155
0.000503071
0.000511082
0.000517874
0.000524047
0.000529031
0.000533114
0.000536589
0.000538495
0.000539869
0.000540538
0.000540073
0.000539065
0.000537126
0.000534357
0.000531079
0.000526798
0.000524094
0.000522907
0.000518525
0.000513302
0.000506191
0.000498657
0.000490222
0.000481009
0.000470919
0.000460267
0.00044924
0.000437023
0.000424246
0.000408825
0.000392323
0.00037891
0.000366885
0.000354699
0.000342413
0.000330062
0.00031765
0.00030524
0.000292834
0.000280481
0.000268313
0.00025615
0.00024408
0.00023201
0.000220259
0.000208569
0.000197175
0.000185954
0.000174959
0.000164287
0.000153721
0.000143669
0.000133617
0.000124181
0.000114806
0.00010589
9.7233e-05
8.88579e-05
8.09427e-05
7.31399e-05
6.59734e-05
5.88069e-05
5.23551e-05
4.59253e-05
4.29774e-05
4.01138e-05
3.72501e-05
3.43865e-05
3.17924e-05
2.92496e-05
2.67068e-05
2.42413e-05
2.19746e-05
1.97079e-05
1.74671e-05
1.54159e-05
1.33647e-05
1.1375e-05
9.46349e-06
7.5686e-06
5.71633e-06
3.85859e-06
2.92649e-06
1.97341e-06
1.00261e-06
0
)


113
(
0
2.2882e-05
4.32984e-05
6.19973e-05
7.96115e-05
9.64264e-05
0.000112571
0.00012812
0.000143283
0.000158119
0.000172419
0.000186392
0.000200108
0.000213209
0.000226044
0.000238495
0.000250393
0.00026203
0.000273062
0.000283695
0.000293974
0.000303555
0.000312534
0.00032002
0.000327584
0.000335174
0.00034194
0.000348362
0.000354288
0.000359548
0.000364467
0.000368735
0.000372506
0.000375942
0.000378594
0.00038091
0.00038278
0.000384002
0.00038491
0.000385277
0.000385148
0.000384713
0.000383663
0.000382259
0.000380514
0.000378192
0.000375686
0.000372577
0.000369256
0.000365487
0.000361421
0.00035702
0.000352261
0.000347263
0.000341883
0.000336321
0.000330388
0.000324303
0.000317885
0.000311319
0.000304485
0.000297488
0.000290295
0.000282921
0.000275426
0.000267733
0.000259983
0.000252031
0.000244072
0.000235923
0.000227774
0.000219511
0.000211227
0.000202897
0.00019454
0.000186178
0.00017781
0.000169519
0.000161609
0.0001537
0.00014541
0.000137082
0.000128886
0.000120763
0.000112736
0.000104864
9.70348e-05
8.94508e-05
8.18669e-05
7.45835e-05
6.73094e-05
6.37886e-05
6.03046e-05
5.68206e-05
5.33366e-05
4.99647e-05
4.66142e-05
4.32637e-05
3.99396e-05
3.66836e-05
3.34275e-05
3.0176e-05
2.69573e-05
2.37386e-05
2.05068e-05
1.72582e-05
1.39844e-05
1.06459e-05
7.22579e-06
5.48994e-06
3.69836e-06
1.87447e-06
0
)


113
(
0
1.52275e-05
2.91675e-05
4.2018e-05
5.4055e-05
6.54156e-05
7.61479e-05
8.62793e-05
9.60172e-05
0.000105421
0.000114305
0.000122899
0.000131265
0.000139144
0.000146832
0.000154246
0.000161298
0.000168185
0.000174703
0.000180989
0.00018707
0.000192761
0.000198296
0.000203512
0.000208455
0.000213236
0.000217599
0.000221789
0.000225729
0.000229332
0.000232764
0.000235865
0.000238714
0.000241393
0.000243668
0.00024577
0.00024764
0.00024917
0.000250534
0.000251609
0.000252417
0.000253059
0.000253363
0.000253468
0.000253383
0.000252968
0.000252445
0.000251569
0.000250566
0.000249292
0.000247832
0.000246164
0.000244263
0.000242208
0.000239894
0.000237457
0.000234757
0.000231948
0.000228889
0.000225717
0.000222329
0.000218808
0.000215115
0.000211262
0.00020729
0.000203125
0.000198895
0.000194438
0.00018997
0.000185246
0.000180521
0.000175593
0.000170626
0.000165523
0.00016034
0.000155079
0.000149706
0.000144304
0.000138766
0.000133228
0.000127562
0.000121883
0.000116129
0.000110332
0.000104497
9.85983e-05
9.2686e-05
8.66944e-05
8.07027e-05
7.46155e-05
6.85253e-05
6.54343e-05
6.23289e-05
5.92235e-05
5.61181e-05
5.29451e-05
4.97592e-05
4.65733e-05
4.3357e-05
4.00625e-05
3.67679e-05
3.34565e-05
3.00217e-05
2.65869e-05
2.30791e-05
1.94783e-05
1.58286e-05
1.20528e-05
8.17108e-06
6.19782e-06
4.1663e-06
2.10506e-06
0
)


113
(
0
7.52742e-06
1.46259e-05
2.13141e-05
2.76611e-05
3.37003e-05
3.94311e-05
4.48424e-05
5.00332e-05
5.50337e-05
5.97261e-05
6.4243e-05
6.86219e-05
7.27054e-05
7.66751e-05
8.04808e-05
8.40766e-05
8.75776e-05
9.08718e-05
9.4041e-05
9.70993e-05
9.9955e-05
0.000102732
0.00010535
0.000107836
0.000110243
0.000112455
0.000114588
0.000116606
0.000118474
0.000120266
0.000121913
0.000123451
0.000124915
0.000126206
0.000127423
0.000128541
0.000129515
0.000130418
0.000131199
0.000131867
0.000132463
0.000132916
0.000133283
0.000133568
0.000133709
0.000133804
0.000133744
0.000133627
0.000133389
0.000133066
0.000132649
0.000132124
0.000131527
0.000130808
0.00013003
0.000129122
0.000128161
0.000127074
0.000125929
0.000124671
0.000123342
0.000121918
0.000120405
0.000118823
0.000117128
0.000115392
0.000113515
0.00011163
0.000109572
0.000107514
0.000105304
0.000103066
0.000100714
9.82959e-05
9.58033e-05
9.32036e-05
9.05724e-05
8.77875e-05
8.50026e-05
8.20439e-05
7.9068e-05
7.5965e-05
7.27903e-05
6.95363e-05
6.61526e-05
6.27356e-05
5.91297e-05
5.55237e-05
5.16865e-05
4.78422e-05
4.58231e-05
4.37735e-05
4.17238e-05
3.96741e-05
3.75111e-05
3.53266e-05
3.3142e-05
3.09183e-05
2.8594e-05
2.62696e-05
2.39285e-05
2.14641e-05
1.89996e-05
1.64769e-05
1.38798e-05
1.12502e-05
8.53681e-06
5.76239e-06
4.35683e-06
2.921e-06
1.47078e-06
0
)


113
(
0
5.86435e-07
1.15854e-06
1.71561e-06
2.25905e-06
2.78929e-06
3.30535e-06
3.80538e-06
4.29351e-06
4.77114e-06
5.23045e-06
5.67851e-06
6.11772e-06
6.53663e-06
6.9472e-06
7.34578e-06
7.72814e-06
8.10302e-06
8.46115e-06
8.80874e-06
9.14698e-06
9.46754e-06
9.78112e-06
1.00804e-05
1.03675e-05
1.06474e-05
1.0909e-05
1.11629e-05
1.1406e-05
1.16346e-05
1.18557e-05
1.20627e-05
1.22588e-05
1.24476e-05
1.26192e-05
1.27832e-05
1.29374e-05
1.30768e-05
1.32091e-05
1.33288e-05
1.34368e-05
1.35375e-05
1.36232e-05
1.36999e-05
1.3768e-05
1.38209e-05
1.38689e-05
1.39002e-05
1.39253e-05
1.39373e-05
1.39401e-05
1.39325e-05
1.39128e-05
1.38851e-05
1.38435e-05
1.37952e-05
1.3732e-05
1.36627e-05
1.35784e-05
1.34874e-05
1.33826e-05
1.32695e-05
1.31445e-05
1.30087e-05
1.28642e-05
1.27053e-05
1.25412e-05
1.23589e-05
1.21756e-05
1.19694e-05
1.17633e-05
1.15367e-05
1.13063e-05
1.10604e-05
1.08054e-05
1.05401e-05
1.026e-05
9.97558e-06
9.66988e-06
9.36419e-06
9.03468e-06
8.70281e-06
8.35393e-06
7.99548e-06
7.62685e-06
7.2416e-06
6.85233e-06
6.44027e-06
6.02821e-06
5.59051e-06
5.152e-06
4.92304e-06
4.691e-06
4.45897e-06
4.22694e-06
3.9848e-06
3.74073e-06
3.49667e-06
3.24952e-06
2.99445e-06
2.73939e-06
2.48315e-06
2.21836e-06
1.95357e-06
1.68518e-06
1.41221e-06
1.13744e-06
8.58004e-07
5.75452e-07
4.33245e-07
2.89583e-07
1.45257e-07
0
)

)


10
(

113
(
0
3.52841e-07
8.53266e-07
1.62045e-06
2.76937e-06
4.56178e-06
7.48428e-06
1.24028e-05
2.07733e-05
3.48003e-05
5.74038e-05
9.19454e-05
0.000141947
0.000210831
0.000301628
0.000419137
0.000567422
0.000743608
0.000947009
0.00117575
0.00142653
0.00169459
0.00197394
0.00225501
0.00252733
0.00278165
0.0030083
0.00319819
0.00334287
0.00343479
0.00346798
0.00343827
0.00334332
0.00318343
0.0029615
0.00268371
0.00236261
0.00201532
0.00166059
0.00131963
0.00101134
0.000752609
0.000548512
0.000395129
0.000283985
0.000205398
0.000150788
0.000113091
8.76041e-05
6.98413e-05
5.69292e-05
4.7314e-05
3.98978e-05
3.39774e-05
2.90924e-05
2.50806e-05
2.15623e-05
1.84106e-05
1.55623e-05
1.30573e-05
1.08259e-05
8.80641e-06
7.0277e-06
5.57012e-06
4.29299e-06
3.23652e-06
2.45004e-06
1.7811e-06
1.30348e-06
9.44361e-07
6.53935e-07
4.82068e-07
3.33448e-07
2.40394e-07
1.68769e-07
1.1823e-07
8.46761e-08
5.76943e-08
4.24297e-08
2.88616e-08
2.16583e-08
1.52632e-08
1.15587e-08
8.50631e-09
6.49129e-09
4.93284e-09
3.74193e-09
2.89507e-09
2.16289e-09
1.71055e-09
1.31052e-09
1.17026e-09
1.02999e-09
9.06866e-10
8.14747e-10
7.22628e-10
6.39204e-10
5.73755e-10
5.08306e-10
4.50721e-10
3.99834e-10
3.49227e-10
3.05732e-10
2.62237e-10
2.21045e-10
1.80253e-10
1.39402e-10
9.82559e-11
5.73501e-11
3.74341e-11
1.97993e-11
5.98676e-12
0
)


113
(
0
5.29157e-07
1.47901e-06
3.31286e-06
6.55997e-06
1.21829e-05
2.15187e-05
3.63688e-05
5.88909e-05
9.13005e-05
0.000135884
0.00019475
0.000269717
0.000362273
0.000473399
0.000604932
0.000757399
0.000926795
0.00111083
0.00130648
0.00151004
0.0017172
0.00192281
0.00211948
0.00230158
0.00246402
0.00260166
0.00270997
0.00278521
0.00282466
0.00282676
0.00279118
0.00271895
0.0026129
0.00247654
0.00231472
0.0021335
0.00193916
0.00173843
0.00153687
0.00133896
0.00115124
0.000976936
0.000817635
0.000675658
0.000551603
0.000444875
0.000354668
0.000280886
0.000221346
0.00017347
0.000135456
0.000105478
8.20115e-05
6.37849e-05
5.05499e-05
4.02836e-05
3.21536e-05
2.57093e-05
2.09202e-05
1.71115e-05
1.39319e-05
1.13552e-05
9.34216e-06
7.58727e-06
6.12455e-06
4.9676e-06
3.94242e-06
3.13009e-06
2.46265e-06
1.87923e-06
1.46906e-06
1.09999e-06
8.33161e-07
6.16271e-07
4.48532e-07
3.29399e-07
2.29074e-07
1.68296e-07
1.1347e-07
8.28559e-08
5.56259e-08
3.96604e-08
2.67474e-08
1.869e-08
1.28608e-08
8.82531e-09
6.27699e-09
4.2244e-09
3.14964e-09
2.22269e-09
1.92602e-09
1.62934e-09
1.37608e-09
1.20134e-09
1.02661e-09
8.72812e-10
7.62313e-10
6.51815e-10
5.59575e-10
4.82889e-10
4.0689e-10
3.48281e-10
2.89672e-10
2.39143e-10
1.90059e-10
1.46151e-10
1.03897e-10
6.44553e-11
4.58951e-11
2.89442e-11
1.36034e-11
0
)


113
(
0
6.10956e-06
1.59804e-05
3.1157e-05
5.19919e-05
7.95521e-05
0.000115114
0.000158865
0.000211401
0.000272857
0.000343325
0.000422582
0.000510007
0.000604767
0.000705922
0.000812725
0.000923831
0.0010369
0.00115036
0.00126255
0.00137178
0.00147643
0.00157466
0.00166368
0.00174278
0.00181119
0.00186781
0.00191182
0.00194252
0.00195969
0.00196359
0.00195384
0.00193132
0.00189652
0.00185023
0.00179356
0.0017276
0.00165407
0.00157358
0.00148866
0.00139999
0.00130785
0.00121547
0.0011231
0.00103127
0.000941721
0.000855147
0.000771645
0.000692999
0.000618621
0.000549456
0.000485464
0.000426344
0.00037202
0.000322578
0.000279062
0.000240098
0.000205159
0.000173943
0.000147243
0.000124158
0.000103713
8.61294e-05
7.17759e-05
5.90632e-05
4.82873e-05
3.97168e-05
3.21048e-05
2.60511e-05
2.10544e-05
1.66706e-05
1.35187e-05
1.06531e-05
8.49695e-06
6.68978e-06
5.22603e-06
4.11795e-06
3.1475e-06
2.4853e-06
1.87125e-06
1.46749e-06
1.09808e-06
8.43026e-07
6.25554e-07
4.67862e-07
3.44327e-07
2.48291e-07
1.81642e-07
1.24788e-07
9.08304e-08
6.129e-08
5.15741e-08
4.18582e-08
3.35875e-08
2.79311e-08
2.22746e-08
1.7419e-08
1.4219e-08
1.1019e-08
8.54807e-09
6.69813e-09
4.87732e-09
3.79394e-09
2.71056e-09
1.99147e-09
1.33757e-09
9.20362e-10
5.72813e-10
3.18938e-10
2.17543e-10
1.37287e-10
6.67346e-11
0
)


113
(
0
2.63314e-05
5.48133e-05
8.85726e-05
0.000127144
0.000170372
0.000218022
0.000269746
0.000325114
0.000383636
0.000444785
0.000508022
0.000573196
0.000640019
0.000707456
0.00077401
0.000839386
0.000903453
0.000965081
0.00102391
0.0010797
0.00113189
0.00118038
0.00122402
0.00126328
0.00129756
0.00132662
0.00135041
0.001369
0.00138227
0.00138998
0.00139237
0.0013893
0.00138148
0.00136841
0.00135082
0.00132858
0.00130257
0.00127259
0.00123931
0.00120256
0.00116363
0.00112237
0.00107862
0.00103374
0.000987261
0.00094021
0.00089267
0.000844561
0.000796683
0.000749535
0.000703107
0.000657365
0.000612522
0.00056896
0.000527271
0.000486961
0.000448109
0.00041078
0.000375683
0.000342741
0.000311362
0.000281668
0.000254643
0.000228989
0.000204962
0.000183404
0.000163031
0.000144723
0.000127976
0.000112135
9.87819e-05
8.6066e-05
7.49581e-05
6.48956e-05
5.5862e-05
4.80829e-05
4.07891e-05
3.49225e-05
2.9295e-05
2.48362e-05
2.06247e-05
1.7236e-05
1.41742e-05
1.16324e-05
9.45824e-06
7.57994e-06
6.08989e-06
4.72926e-06
3.75998e-06
2.87718e-06
2.53536e-06
2.19355e-06
1.88782e-06
1.64738e-06
1.40694e-06
1.18983e-06
1.02093e-06
8.52039e-07
7.09981e-07
5.90783e-07
4.72882e-07
3.87804e-07
3.02726e-07
2.37429e-07
1.75692e-07
1.29401e-07
8.83177e-08
5.43286e-08
3.93225e-08
2.58436e-08
1.29114e-08
0
)


113
(
0
4.05974e-05
7.77902e-05
0.000115586
0.000154779
0.000195476
0.000237502
0.000280548
0.000324273
0.000368354
0.000412499
0.000456448
0.000499967
0.00054284
0.000584865
0.000625758
0.000665209
0.000703188
0.000739542
0.00077413
0.000806814
0.000837469
0.000865972
0.000891863
0.000915645
0.000938766
0.000959366
0.00097673
0.000991138
0.00100269
0.00101123
0.00101687
0.00102065
0.00102174
0.00102018
0.00101565
0.00100954
0.00100123
0.000990393
0.000978039
0.000963902
0.000948004
0.000930216
0.000911168
0.000890552
0.000868682
0.000846164
0.000822168
0.000797538
0.000772067
0.000745921
0.000719299
0.00069239
0.000665197
0.000637627
0.00061041
0.000583
0.00055583
0.000529015
0.000502355
0.000475885
0.000449874
0.000424652
0.000399739
0.000375505
0.000352305
0.000329633
0.000307447
0.000286369
0.00026607
0.000246223
0.000227695
0.000209581
0.000192538
0.000176252
0.000160712
0.00014632
0.000132374
0.00011996
0.000107811
9.70166e-05
8.65446e-05
7.71445e-05
6.82462e-05
6.01461e-05
5.27052e-05
4.5795e-05
3.96863e-05
3.38447e-05
2.89369e-05
2.42776e-05
2.22361e-05
2.01946e-05
1.82769e-05
1.65831e-05
1.48894e-05
1.32906e-05
1.18883e-05
1.04859e-05
9.21295e-06
8.05024e-06
6.89483e-06
5.92417e-06
4.95351e-06
4.10837e-06
3.28587e-06
2.56735e-06
1.88273e-06
1.24183e-06
9.31921e-07
6.26168e-07
3.17759e-07
0
)


113
(
0
4.04997e-05
7.61232e-05
0.000109538
0.000142026
0.000174032
0.000205744
0.000237203
0.000268366
0.000299149
0.000329454
0.000359186
0.000388256
0.000416581
0.000444084
0.000470625
0.000496066
0.000520468
0.000543786
0.000565978
0.000587003
0.000606826
0.000625413
0.000642542
0.000658398
0.000672966
0.000686235
0.000698196
0.000708846
0.000718185
0.000726218
0.000732953
0.000738404
0.000742599
0.000745788
0.000747455
0.000747926
0.000747241
0.000745433
0.000742537
0.000738593
0.000733608
0.000727643
0.000721855
0.000721935
0.0007157
0.00070755
0.000698162
0.000687264
0.000675223
0.000662005
0.0006478
0.000632767
0.000617138
0.000601136
0.000583422
0.000565216
0.000544245
0.000521251
0.000504633
0.000487837
0.000470929
0.000453916
0.000436839
0.000419758
0.000402686
0.000385812
0.000368969
0.000352106
0.000335442
0.000318893
0.000302728
0.0002867
0.00027103
0.000255642
0.000240531
0.000225875
0.000211396
0.000197548
0.00018382
0.000170785
0.000157931
0.000145686
0.000133756
0.000122328
0.00011136
0.000100764
9.07904e-05
8.10245e-05
7.20673e-05
6.33488e-05
5.92673e-05
5.51858e-05
5.12362e-05
4.75253e-05
4.38144e-05
4.02136e-05
3.68405e-05
3.34675e-05
3.02527e-05
2.71728e-05
2.41018e-05
2.12581e-05
1.84143e-05
1.57141e-05
1.30396e-05
1.046e-05
7.89466e-06
5.33389e-06
4.0448e-06
2.73001e-06
1.3871e-06
0
)


113
(
0
3.22151e-05
6.08386e-05
8.70276e-05
0.000111686
0.000135175
0.000157737
0.00017954
0.000200691
0.000221254
0.000241262
0.00026073
0.000279661
0.000298049
0.000315885
0.000333114
0.000349681
0.000365646
0.000380996
0.000395717
0.000409797
0.000423227
0.000435993
0.000445395
0.00045599
0.000466178
0.00047565
0.000484404
0.000492436
0.000499746
0.000506337
0.000512211
0.000517372
0.000521826
0.000525579
0.000528624
0.000530988
0.000532687
0.000533732
0.000534134
0.000533908
0.000533047
0.000531576
0.000529517
0.000526889
0.000523706
0.000519987
0.000515749
0.000510975
0.000505691
0.000499941
0.000493741
0.000487114
0.000480084
0.000472676
0.00046481
0.000456583
0.000448044
0.000439215
0.000430019
0.000420526
0.000410811
0.000400851
0.000390593
0.000380179
0.000369575
0.000358746
0.000347815
0.000336714
0.000325495
0.000314208
0.000302785
0.000291333
0.000279813
0.000268273
0.000256712
0.000245161
0.000233613
0.000222724
0.000211847
0.00020032
0.000188844
0.000177536
0.00016633
0.000155284
0.000144406
0.000133661
0.000123165
0.000112751
0.000102681
9.27171e-05
8.78571e-05
8.29972e-05
7.81945e-05
7.34953e-05
6.87962e-05
6.41409e-05
5.95762e-05
5.50114e-05
5.04971e-05
4.60257e-05
4.15559e-05
3.71241e-05
3.26923e-05
2.82426e-05
2.37892e-05
1.92579e-05
1.46641e-05
9.96079e-06
7.56219e-06
5.09888e-06
2.58382e-06
0
)


113
(
0
2.13466e-05
4.08401e-05
5.87951e-05
7.56134e-05
9.14477e-05
0.000106422
0.000120649
0.00013422
0.000147209
0.000159672
0.000171652
0.000183183
0.000194287
0.000204983
0.000215259
0.000225103
0.000234573
0.000243673
0.000252406
0.000260774
0.000268778
0.000276415
0.000283632
0.000290488
0.000296982
0.000303112
0.000308879
0.000314282
0.00031932
0.000323994
0.000328304
0.00033225
0.000335833
0.000339056
0.00034191
0.000344409
0.000346557
0.000348357
0.000349812
0.000350927
0.000351694
0.000352123
0.000352222
0.000351998
0.000351455
0.000350599
0.000349435
0.000347949
0.00034615
0.00034406
0.000341683
0.00033903
0.00033611
0.000332935
0.000329441
0.000325689
0.000321706
0.000317507
0.000313021
0.000308293
0.000303379
0.000298252
0.000292851
0.000287297
0.000281554
0.000275564
0.000269453
0.000263132
0.000256639
0.000250047
0.000243208
0.000236299
0.000229212
0.000222013
0.000214705
0.000207253
0.000199745
0.000192075
0.000184376
0.000176533
0.000168659
0.000160679
0.000152654
0.000144555
0.000136398
0.000128193
0.000119912
0.000111606
0.000103193
9.47429e-05
9.04735e-05
8.62041e-05
8.19068e-05
7.75588e-05
7.32109e-05
6.88299e-05
6.43808e-05
5.99317e-05
5.54132e-05
5.08356e-05
4.6252e-05
4.15175e-05
3.67829e-05
3.18945e-05
2.69777e-05
2.18693e-05
1.6663e-05
1.13029e-05
8.56624e-06
5.76257e-06
2.91092e-06
0
)


113
(
0
1.05274e-05
2.04421e-05
2.97788e-05
3.86412e-05
4.70557e-05
5.5048e-05
6.26478e-05
6.98853e-05
7.67883e-05
8.33814e-05
8.96852e-05
9.57176e-05
0.000101493
0.000107024
0.000112307
0.000117339
0.000122159
0.000126774
0.000131189
0.00013541
0.000139441
0.000143287
0.000146924
0.000150386
0.000153675
0.000156795
0.000159748
0.000162535
0.000165159
0.000167621
0.000169924
0.000172068
0.000174056
0.000175889
0.000177564
0.000179088
0.000180463
0.00018169
0.00018277
0.000183704
0.000184491
0.000185132
0.000185631
0.000185991
0.000186211
0.000186295
0.000186242
0.000186046
0.00018571
0.00018524
0.00018464
0.00018391
0.000183055
0.000182079
0.000180949
0.000179692
0.00017832
0.000176838
0.000175208
0.00017345
0.000171591
0.000169616
0.000167486
0.000165266
0.000162935
0.00016045
0.000157889
0.000155191
0.000152374
0.000149487
0.000146416
0.000143289
0.000140017
0.000136644
0.000133173
0.000129556
0.000125882
0.000122019
0.00011812
0.000114024
0.000109877
0.00010556
0.000101154
9.66066e-05
9.19261e-05
8.71384e-05
8.21612e-05
7.71209e-05
7.18165e-05
6.6427e-05
6.36329e-05
6.08389e-05
5.79921e-05
5.50501e-05
5.21081e-05
4.91158e-05
4.60198e-05
4.29237e-05
3.97427e-05
3.64892e-05
3.32298e-05
2.98197e-05
2.64096e-05
2.28716e-05
1.93104e-05
1.56132e-05
1.18552e-05
8.00525e-06
6.04864e-06
4.05732e-06
2.04256e-06
0
)


113
(
0
8.18668e-07
1.617e-06
2.39421e-06
3.15257e-06
3.89174e-06
4.61141e-06
5.31163e-06
5.99266e-06
6.65485e-06
7.29858e-06
7.9242e-06
8.53202e-06
9.12228e-06
9.69522e-06
1.02498e-05
1.07852e-05
1.13037e-05
1.18055e-05
1.22908e-05
1.27595e-05
1.32119e-05
1.36478e-05
1.40649e-05
1.4466e-05
1.48511e-05
1.52203e-05
1.55737e-05
1.59112e-05
1.6233e-05
1.65391e-05
1.68295e-05
1.71043e-05
1.73636e-05
1.76074e-05
1.78354e-05
1.8048e-05
1.82455e-05
1.84279e-05
1.85952e-05
1.87476e-05
1.88845e-05
1.90064e-05
1.91133e-05
1.92055e-05
1.9283e-05
1.93458e-05
1.93941e-05
1.94268e-05
1.94441e-05
1.9447e-05
1.94352e-05
1.94091e-05
1.93689e-05
1.9315e-05
1.92435e-05
1.91572e-05
1.90574e-05
1.89447e-05
1.88145e-05
1.86688e-05
1.85107e-05
1.83385e-05
1.81469e-05
1.79439e-05
1.77269e-05
1.74902e-05
1.72434e-05
1.69787e-05
1.66981e-05
1.64083e-05
1.60935e-05
1.57711e-05
1.54287e-05
1.50724e-05
1.47025e-05
1.43123e-05
1.39141e-05
1.34896e-05
1.30602e-05
1.26034e-05
1.21397e-05
1.16529e-05
1.11544e-05
1.06372e-05
1.01032e-05
9.55553e-06
8.98518e-06
8.40726e-06
7.79976e-06
7.18346e-06
6.86506e-06
6.54666e-06
6.22329e-06
5.89095e-06
5.5586e-06
5.22198e-06
4.8765e-06
4.53101e-06
4.17898e-06
3.82138e-06
3.46336e-06
3.09487e-06
2.72638e-06
2.34982e-06
1.97179e-06
1.58591e-06
1.19675e-06
8.02782e-07
6.04202e-07
4.0395e-07
2.02606e-07
0
)

)


10
(

113
(
0
5.89831e-07
1.43846e-06
2.77632e-06
4.87765e-06
8.32634e-06
1.41628e-05
2.41811e-05
4.10919e-05
6.86374e-05
0.000111781
0.0001745
0.0002595
0.000370385
0.000504231
0.000677667
0.0008805
0.00110231
0.00133667
0.00160333
0.00186538
0.00214
0.00241667
0.00267769
0.00291615
0.003135
0.00332833
0.00348667
0.003605
0.0036825
0.0037075
0.00367727
0.00359
0.00346
0.00327545
0.00302
0.00271455
0.00238364
0.00202
0.00166545
0.00133545
0.0010196
0.000776636
0.0005753
0.000425727
0.000314636
0.000231455
0.000172333
0.000130667
9.9e-05
7.89231e-05
6.1875e-05
4.86154e-05
3.84714e-05
3.08286e-05
2.46143e-05
1.92714e-05
1.47e-05
1.154e-05
8.87563e-06
6.70688e-06
5.12875e-06
3.76813e-06
2.76188e-06
2.04412e-06
1.45e-06
1.10444e-06
7.87778e-07
5.86667e-07
4.19778e-07
3.04222e-07
2.21368e-07
1.60316e-07
1.18495e-07
8.49158e-08
6.436e-08
4.706e-08
3.62e-08
2.695e-08
2.11e-08
1.61e-08
1.2904e-08
1.0159e-08
8.24158e-09
6.53105e-09
5.4465e-09
4.4315e-09
3.675e-09
2.97278e-09
2.50056e-09
2.06941e-09
1.90176e-09
1.73412e-09
1.575e-09
1.45e-09
1.325e-09
1.2e-09
1.10467e-09
1.00933e-09
9.14e-10
8.21917e-10
7.29833e-10
6.43636e-10
5.61364e-10
4.77778e-10
3.92222e-10
3.02714e-10
2.125e-10
1.3e-10
8.8875e-11
4.575e-11
1.44e-11
0
)


113
(
0
9.39163e-07
2.71826e-06
6.10089e-06
1.20706e-05
2.22539e-05
3.89164e-05
6.46381e-05
0.000102097
0.000153894
0.000221818
0.000308106
0.000412978
0.000537493
0.00068472
0.000850768
0.00103314
0.00122935
0.0014356
0.00165021
0.00186654
0.00207993
0.00228613
0.00248055
0.00265835
0.00281109
0.00293813
0.00303653
0.00310378
0.0031379
0.00313303
0.003091
0.00301268
0.00290327
0.002766
0.0026024
0.00241751
0.00221757
0.00200798
0.0017936
0.00158214
0.00137774
0.00118424
0.00100453
0.000842614
0.000698015
0.000571356
0.000462753
0.000369951
0.000292475
0.00023206
0.000181712
0.000141449
0.000108916
8.42144e-05
6.53543e-05
5.01004e-05
3.80654e-05
2.98129e-05
2.29416e-05
1.74514e-05
1.36391e-05
1.03798e-05
7.97621e-06
6.1514e-06
4.57464e-06
3.56973e-06
2.64095e-06
2.01671e-06
1.4896e-06
1.10819e-06
8.20469e-07
5.95197e-07
4.38459e-07
3.11093e-07
2.30512e-07
1.61627e-07
1.19165e-07
8.33093e-08
6.14889e-08
4.31774e-08
3.20795e-08
2.2785e-08
1.71169e-08
1.23553e-08
9.61177e-09
7.09245e-09
5.59613e-09
4.2689e-09
3.44037e-09
2.70281e-09
2.44017e-09
2.17753e-09
1.93154e-09
1.75216e-09
1.57279e-09
1.39341e-09
1.26032e-09
1.12723e-09
9.94139e-10
8.85489e-10
7.76839e-10
6.75555e-10
5.79182e-10
4.85313e-10
3.952e-10
3.07444e-10
2.21898e-10
1.38903e-10
1.00627e-10
6.35676e-11
3.03241e-11
0
)


113
(
0
9.31465e-06
2.39204e-05
4.53972e-05
7.4262e-05
0.000111833
0.000159723
0.000217889
0.000285726
0.000364292
0.000452528
0.00055003
0.00065568
0.00076883
0.000889108