/*--------------------------------*- C++ -*----------------------------------*\
| =========                 |                                                 |
| \\      /  F ield         | OpenFOAM: The Open Source CFD Toolbox           |
|  \\    /   O peration     | Version:  2.3.0                                 |
|   \\  /    A nd           | Web:      www.OpenFOAM.org                      |
|    \\/     M anipulation  |                                                 |
\*---------------------------------------------------------------------------*/
FoamFile
{
    version     2.0;
    format      ascii;
    class       dictionary;
    location    "constant";
    object      T;
}
// * * * * * * * * * * * * * * * * * * * * * * * * * * * * * * * * * * * * * //

T_table
13
(

10
(

113
(
294
386.833
477.843
567.23
653.675
738.381
820.921
900.161
978.166
1055.1
1127.95
1199.49
1270
1339.18
1408.01
1476.34
1543.99
1610.37
1671.34
1729.26
1784.48
1839.39
1892.84
1942.22
1987.65
2030.75
2068.01
2100.19
2125.03
2140.06
2152.62
2165.12
2170
2169.87
2163.58
2154.56
2141.9
2129.24
2116.58
2103.92
2086.82
2068.51
2056.09
2037.78
2013.83
1995.43
1977.54
1955.2
1934.81
1918.59
1899.95
1878.56
1860.62
1845
1829.64
1814.42
1795.94
1776.14
1760
1745.51
1731.14
1716.86
1702.71
1688.69
1674.72
1660.83
1645.96
1627.61
1609.27
1591.09
1572.91
1554.8
1536.7
1512.97
1485.95
1455.36
1419.64
1383.98
1348.58
1313.19
1269.91
1225.86
1181.68
1137.43
1092.96
1048.12
1003.19
957.775
912.362
865.053
817.684
793.776
769.796
745.816
721.837
696.764
671.483
646.202
620.823
595.19
569.557
543.821
517.328
490.836
463.981
436.667
409.049
380.654
352.143
337.857
323.571
308.476
294
)


113
(
294
385.661
475.881
562.956
648.363
731.809
813.118
892.068
969.347
1045.17
1118.62
1190.67
1261.64
1330.11
1397.46
1463.19
1526.42
1588.39
1647.29
1703.91
1758.51
1808.62
1856.77
1900.76
1940.79
1978.47
2009.6
2037.91
2062.17
2080.94
2096.97
2107.88
2115.14
2119.96
2119.62
2117.36
2112.55
2104.6
2095.32
2083.94
2070.98
2057.11
2041.74
2025.73
2009.11
1991.83
1974.37
1956.48
1938.56
1920.57
1902.68
1884.9
1867.31
1849.84
1832.7
1815.71
1799.05
1782.53
1766.26
1750.1
1734.05
1718.08
1701.99
1685.79
1669.31
1652.36
1635.11
1616.73
1598.27
1577.68
1557.09
1533.93
1510.28
1484.26
1456.84
1427.72
1396.12
1363.82
1328.11
1292.39
1253.4
1214.08
1172.97
1130.84
1087.94
1043.8
999.422
953.766
908.11
861.155
814.16
790.142
765.96
741.778
717.596
692.815
667.92
643.024
617.922
592.29
566.659
540.938
514.564
488.189
461.512
434.447
407.201
379.489
351.336
337.139
322.86
308.694
294
)


113
(
294
383.311
468.11
552.049
634.234
714.891
795.182
871.427
945.659
1018.26
1087.79
1155.69
1222.33
1285.63
1347.47
1407.2
1463.8
1518.9
1570.48
1619.7
1666.82
1709.7
1750.87
1788.55
1823.08
1855.75
1883.71
1909.71
1932.91
1952.4
1970.03
1984.14
1995.7
2005.57
2011.62
2016.13
2018.6
2018.36
2016.85
2013.18
2007.85
2001.51
1993.23
1983.95
1973.72
1962.14
1950.15
1936.85
1923.21
1908.83
1894.03
1878.77
1863.05
1847.01
1830.57
1813.93
1796.88
1779.65
1761.98
1744.13
1725.83
1707.25
1688.19
1668.66
1648.71
1628.04
1607.04
1584.87
1562.63
1538.75
1514.87
1489.24
1463.28
1435.83
1407.52
1378.18
1347.39
1316.13
1282.66
1249.18
1213.27
1177.12
1139.32
1100.59
1060.94
1019.78
978.3
934.968
891.637
846.508
801.323
778.048
754.557
731.066
707.575
683.394
659.081
634.768
610.125
584.632
559.139
533.61
507.814
482.018
455.966
429.587
403.117
376.413
349.825
336.564
323.345
309.712
294
)


113
(
294
381.818
458.61
534.244
609.084
682.635
754.368
823.748
891.299
957.207
1020.16
1081.23
1140.83
1199.3
1255.5
1308.43
1358.26
1406.58
1451.36
1493.88
1534.4
1571.47
1607.36
1640.96
1671.98
1701.48
1727.5
1752.2
1774.99
1795.01
1813.68
1829.89
1844.21
1857.26
1867.41
1876.37
1883.77
1888.93
1893.02
1895.29
1895.94
1895.61
1893.49
1890.25
1885.94
1880.01
1873.56
1865.36
1856.6
1846.63
1835.87
1824.21
1811.56
1798.26
1783.95
1769.17
1753.33
1737.04
1719.79
1702.1
1683.53
1664.42
1644.56
1624
1602.84
1580.68
1558.23
1534.78
1511.25
1485.99
1460.73
1434.31
1407.67
1379.75
1351.06
1321.7
1291.36
1260.71
1228.53
1196.35
1162.14
1127.74
1092.29
1056.25
1019.07
980.037
940.657
899.315
857.973
815.486
772.963
751.001
728.818
706.635
684.452
661.558
638.528
615.498
592.262
568.495
544.729
520.899
496.606
472.314
447.94
423.465
398.989
374.516
349.733
337.2
323.965
309.917
294
)


113
(
294
376.204
445.73
510.954
574.522
636.939
698.119
757.62
815.702
872.48
926.792
979.502
1030.96
1079.43
1126.67
1172.13
1215.15
1257.04
1296.41
1334.19
1370.55
1404.24
1436.88
1467.37
1497.17
1526.53
1553.44
1578.64
1601.4
1622.03
1641.48
1658.5
1674.02
1688.54
1700.46
1711.33
1720.8
1728.5
1735.31
1740.53
1744.35
1747.29
1748.38
1748.54
1747.81
1745.43
1742.52
1737.99
1732.83
1726.34
1718.98
1710.64
1701.25
1691.15
1679.88
1668.06
1655.01
1641.45
1626.64
1611.25
1594.82
1577.73
1559.68
1540.73
1521.23
1500.82
1480.07
1458.11
1436.07
1412.07
1388.07
1362.02
1335.59
1308.43
1280.85
1252.03
1221.44
1190.8
1160.01
1129.21
1096.85
1064.33
1030.69
996.436
961.519
925.526
889.275
851.566
813.858
774.539
735.172
714.909
694.463
674.017
653.571
632.597
611.522
590.447
569.251
547.746
526.241
504.706
482.951
461.195
439.311
417.261
395.004
372.212
348.439
336.219
323.053
309.174
294
)


113
(
294
365.518
426.784
482.504
535.344
586.288
635.712
683.704
730.662
776.703
821.08
864.36
906.78
947.098
986.514
1024.63
1060.95
1096.42
1129.99
1162.36
1193.66
1222.93
1251.39
1278.23
1303.67
1328.3
1350.85
1372.56
1393.05
1411.94
1430.01
1446.54
1461.9
1476.48
1488.6
1500.21
1511.15
1520.61
1529.36
1536.87
1543.25
1548.95
1553.24
1562.13
1575.44
1581.06
1584.83
1585.64
1585.27
1582.41
1578.06
1572.05
1564.26
1555.29
1544.15
1531.98
1510.88
1486.13
1469.87
1457.42
1443.89
1429.69
1414.59
1398.66
1382.07
1364.42
1346.65
1328.48
1310.19
1288.94
1267.69
1245.1
1222.25
1198.41
1173.98
1148.9
1122.88
1096.6
1069
1041.4
1012.37
983.188
953.017
922.286
890.985
858.754
826.312
792.678
759.043
724.2
689.319
671.485
653.527
635.569
617.612
599.306
580.934
562.562
544.082
525.326
506.569
487.751
468.48
449.208
429.561
409.434
388.934
367.475
344.881
333.222
320.751
307.782
294
)


113
(
294
351.263
401.875
447.802
490.74
531.461
570.319
607.543
643.734
679.055
713.017
746.193
778.751
809.912
840.496
870.247
898.85
926.918
953.774
979.851
1005.24
1029.3
1051.85
1070.52
1090.17
1110.34
1129
1147.02
1164.14
1180.04
1195.33
1209.43
1222.63
1235.21
1246.36
1256.9
1266.6
1275.11
1283.01
1289.9
1295.83
1301.17
1305.3
1308.72
1311.45
1312.98
1314.12
1313.96
1313.33
1311.69
1309.35
1306.22
1302.19
1297.56
1291.91
1285.77
1278.55
1270.89
1262.18
1252.99
1242.84
1232.11
1220.59
1208.33
1195.49
1181.7
1167.58
1152.28
1136.92
1120.12
1103.32
1085.28
1067.01
1047.82
1028.1
1007.79
986.646
965.582
944.916
924.249
900.26
875.941
850.875
825.387
799.48
772.89
746.145
718.527
690.908
662.355
633.772
619.118
604.35
589.581
574.813
559.601
544.305
529.01
513.529
497.572
481.616
465.553
448.712
431.871
414.522
396.527
378.147
358.782
338.488
328.053
317.06
305.762
294
)


113
(
294
334.612
371.774
406.027
438.118
468.422
497.076
524.17
550.253
575.482
599.4
622.598
645.231
666.678
687.666
707.997
727.472
746.558
764.782
782.468
799.678
815.988
831.941
847.163
861.757
875.979
889.244
902.11
914.402
925.918
937.038
947.393
957.159
966.528
974.952
982.963
990.426
997.076
1003.33
1008.88
1013.78
1018.27
1021.92
1025.07
1027.75
1029.57
1031.13
1031.75
1032.04
1031.6
1030.66
1029.14
1026.98
1024.37
1021.02
1017.31
1012.8
1007.97
1002.36
996.395
989.725
982.622
974.926
966.683
958.009
948.631
939.006
928.506
917.961
906.352
894.743
882.22
869.522
856.153
842.389
828.198
813.39
798.408
782.574
766.74
749.987
733.142
715.657
697.812
679.586
660.739
641.736
621.858
601.979
581.033
560.054
549.101
538.002
526.902
515.803
504.117
492.32
480.523
468.499
455.891
443.284
430.565
417.031
403.496
389.518
374.976
360.153
344.607
328.474
320.23
311.67
302.951
294
)


113
(
294
316.082
336.941
356.632
375.353
393.201
410.175
426.247
441.697
456.612
470.66
484.216
497.386
509.73
521.755
533.324
544.307
555.026
565.17
574.967
584.454
593.378
602.084
610.346
618.239
625.914
633.043
639.949
646.536
652.701
658.651
664.193
669.424
674.447
678.979
683.298
687.335
690.957
694.375
697.44
700.173
702.701
704.805
706.657
708.268
709.451
710.496
711.074
711.48
711.519
711.301
710.792
709.95
708.886
707.436
705.804
703.76
701.549
698.93
696.127
692.951
689.548
685.827
681.814
677.566
672.936
668.169
662.915
657.636
651.75
645.865
639.441
632.914
625.976
618.796
611.341
603.49
595.521
586.972
578.423
569.208
559.927
550.15
540.095
529.726
518.846
507.833
496.066
484.3
471.607
458.886
452.135
445.262
438.388
431.515
424.186
416.77
409.355
401.782
393.806
385.829
377.786
369.249
360.713
351.943
342.878
333.683
324.155
314.385
309.428
304.35
299.216
294
)


113
(
294
295.918
297.789
299.611
301.39
303.125
304.815
306.453
308.052
309.617
311.122
312.591
314.032
315.406
316.754
318.062
319.318
320.549
321.726
322.868
323.981
325.035
326.067
327.052
327.998
328.92
329.783
330.62
331.423
332.177
332.908
333.592
334.241
334.866
335.434
335.978
336.49
336.953
337.393
337.792
338.153
338.489
338.776
339.034
339.264
339.444
339.607
339.716
339.804
339.85
339.865
339.846
339.787
339.702
339.57
339.418
339.215
338.993
338.721
338.427
338.088
337.721
337.315
336.873
336.402
335.884
335.348
334.752
334.153
333.478
332.804
332.061
331.306
330.499
329.663
328.792
327.871
326.937
325.932
324.926
323.842
322.75
321.601
320.42
319.205
317.935
316.652
315.292
313.933
312.488
311.04
310.284
309.517
308.751
307.984
307.184
306.377
305.57
304.753
303.91
303.066
302.219
301.343
300.467
299.579
298.676
297.766
296.841
295.906
295.435
294.959
294.481
294
)

)


10
(

113
(
294
385.419
475.027
562.501
647.91
731.102
812.031
890.733
967.348
1042.05
1115.04
1186.28
1255.73
1323.4
1389.19
1452.94
1514.29
1573.36
1629.96
1683.94
1735.11
1783.24
1828.21
1869.24
1906.61
1940.3
1970.23
1996.3
2018.51
2036.97
2051.78
2063.07
2071.12
2076.12
2078.5
2078.5
2076.48
2072.79
2067.74
2061.31
2053.55
2044.02
2032.51
2019.14
2004.16
1987.75
1970.23
1951.95
1933.02
1913.68
1894.08
1874.28
1854.21
1833.87
1813.31
1792.31
1770.9
1748.96
1726.39
1702.88
1678.41
1653.07
1626.63
1598.71
1569.94
1540.11
1509.07
1477.49
1445.02
1412.05
1378.8
1345.09
1311.29
1277.27
1243.19
1209.03
1174.83
1140.61
1106.36
1072.09
1037.73
1003.33
968.852
934.282
899.571
864.675
829.631
794.255
758.769
722.752
686.546
668.223
649.9
631.451
612.775
594.098
575.294
556.227
537.161
517.866
498.378
478.875
459.003
439.131
418.937
398.685
378.109
357.396
336.49
325.978
315.364
304.728
294
)


113
(
294
384.229
472.819
558.684
642.693
724.742
804.731
882.662
958.584
1032.55
1104.59
1174.69
1242.85
1308.99
1373.06
1434.8
1493.92
1550.58
1604.65
1656
1704.5
1750.03
1792.47
1831.19
1866.68
1898.86
1927.73
1953.32
1975.63
1994.74
2010.75
2023.74
2033.9
2041.34
2046.2
2048.64
2048.81
2046.9
2043.08
2037.43
2030.06
2021.1
2010.66
1998.84
1985.78
1971.59
1956.35
1940.17
1923.07
1905.16
1886.54
1867.25
1847.36
1826.88
1805.84
1784.08
1761.69
1738.7
1715.13
1690.72
1665.52
1639.68
1613.11
1585.51
1557.33
1528.43
1498.58
1468.29
1437.24
1405.61
1373.66
1341
1308.16
1274.89
1241.41
1207.72
1173.8
1139.81
1105.6
1071.36
1036.94
1002.47
967.835
933.107
898.224
863.161
827.953
792.443
756.831
720.729
684.453
666.111
647.769
629.31
610.642
591.974
573.191
554.17
535.149
515.932
496.546
477.148
457.409
437.67
417.66
397.602
377.291
356.758
335.991
325.583
315.117
304.744
294
)


113
(
294
381.732
465.145
547.543
628.121
707.17
784.866
859.526
931.76
1001.75
1069.3
1134.65
1197.93
1259.07
1317.96
1374.41
1428.11
1479.38
1528.15
1574.37
1618.01
1659.03
1697.42
1732.72
1765.4
1795.45
1822.87
1847.7
1869.99
1889.75
1907.01
1921.88
1934.4
1944.58
1952.61
1958.4
1962.16
1964
1963.96
1962.18
1958.69
1953.52
1946.81
1938.67
1929.12
1918.29
1906.24
1893.01
1878.62
1863.1
1846.59
1829.13
1810.77
1791.55
1771.54
1750.55
1728.78
1706.32
1683.22
1659.26
1634.59
1609.37
1583.52
1556.87
1529.76
1502.09
1473.68
1444.92
1415.53
1385.64
1355.45
1324.53
1293.41
1261.76
1229.78
1197.48
1164.76
1131.87
1098.49
1065.02
1031.1
997.07
962.697
928.157
893.353
858.315
823.09
787.531
751.861
715.791
679.603
661.374
643.144
624.807
606.275
587.743
569.074
550.124
531.174
511.968
492.544
473.119
453.679
434.24
414.584
394.888
375.009
355.131
335.337
325.512
315.732
305.653
294
)


113
(
294
380.105
455.001
528.847
601.843
673.39
743.066
810.669
876.128
939.426
1000.56
1059.54
1117.01
1173.22
1227.15
1277.9
1326.04
1371.76
1414.72
1455.45
1494.2
1530.39
1564.49
1596.21
1626.05
1653.67
1679.21
1702.78
1724.35
1743.85
1761.42
1777.07
1790.86
1802.72
1812.8
1821.03
1827.55
1832.34
1835.51
1837.14
1837.15
1835.67
1832.69
1828.3
1822.58
1815.5
1807.19
1797.67
1786.86
1774.89
1761.82
1747.71
1732.59
1716.5
1699.51
1681.45
1662.5
1642.77
1622.31
1600.92
1578.74
1555.95
1532.48
1508.15
1483.33
1457.9
1431.7
1405.12
1377.88
1350.09
1321.98
1293.09
1263.97
1234.27
1204.2
1173.76
1142.76
1111.52
1079.8
1047.96
1015.36
982.68
949.705
916.385
882.516
848.094
813.227
777.664
741.869
706.29
670.558
652.507
634.456
616.315
598.009
579.704
561.319
542.772
524.225
505.565
486.809
468.048
449.164
430.279
411.404
392.532
373.786
355.063
336.236
326.696
316.714
306.064
294
)


113
(
294
374.384
441.891
505.296
567.081
627.667
686.995
744.881
801.155
855.707
908.475
959.429
1008.56
1055.87
1101.36
1144.9
1186.41
1226.11
1264.04
1300.18
1334.56
1367.19
1398.05
1426.92
1454.74
1482.55
1508.77
1532.37
1553.6
1573.02
1590.43
1605.6
1619.84
1632.38
1643.25
1652.1
1659.95
1666.36
1671.05
1674.68
1676.97
1677.95
1677.44
1675.92
1673.18
1669.27
1664.21
1658.04
1650.77
1642.42
1633.01
1622.63
1611.31
1599.07
1585.96
1571.76
1556.76
1540.96
1524.39
1506.8
1488.52
1469.58
1449.81
1429.07
1407.89
1386.24
1363.43
1340.23
1316.54
1291.92
1266.76
1240.56
1213.93
1186.14
1157.76
1128.81
1099.53
1070.13
1040.5
1010.8
980.334
949.69
918.446
886.913
854.924
822.543
789.847
756.652
723.291
689.318
655.179
637.915
620.652
603.31
585.824
568.339
550.807
533.178
515.548
497.893
480.214
462.536
444.877
427.218
409.549
391.876
373.995
355.822
337.018
327.283
316.935
305.966
294
)


113
(
294
363.606
422.877
476.768
527.858
577.032
624.734
671.17
716.408
760.454
803.285
844.87
885.181
924.191
961.881
998.136
1032.86
1066.23
1098.24
1128.9
1158.2
1186.15
1212.76
1237.83
1261.59
1284.06
1305.23
1325.14
1343.78
1361.17
1377.33
1392.27
1406.01
1418.52
1428.91
1439.09
1448.14
1456.1
1462.99
1468.82
1473.62
1477.38
1480.15
1483.92
1498.77
1502.63
1503.82
1503.47
1500.8
1496.47
1490.51
1482.95
1473.92
1463.5
1451.67
1437.58
1422.06
1400.55
1374.56
1360.94
1346.52
1331.47
1315.71
1299.01
1281.78
1263.89
1246.67
1228.76
1208.5
1187.62
1166.37
1144.17
1121.68
1098.47
1074.76
1050.57
1025.69
1000.54
974.548
948.397
921.408
894.216
866.354
838.174
809.488
780.38
750.932
720.977
690.852
660.16
629.331
613.759
598.186
582.555
566.818
551.081
535.303
519.44
503.578
487.641
471.64
455.63
439.397
423.164
406.572
389.912
372.577
354.755
336.07
326.353
316.091
305.368
294
)


113
(
294
349.224
397.814
441.852
482.996
521.914
559.063
594.774
629.271
662.7
695.154
726.688
757.339
787.122
816.049
844.059
871.099
897.274
922.582
947.02
970.582
993.268
1015.07
1030.7
1049.27
1067.53
1084.87
1101.27
1116.74
1131.29
1144.91
1157.62
1169.41
1180.29
1190.27
1199.34
1207.52
1214.83
1221.28
1226.88
1231.63
1235.52
1238.57
1240.81
1242.23
1242.87
1242.72
1241.79
1240.05
1237.51
1234.23
1230.2
1225.46
1220.02
1213.9
1206.93
1199.26
1190.95
1182.04
1172.33
1161.92
1150.97
1139.39
1126.97
1114.09
1100.61
1086.32
1071.64
1056.24
1040.23
1023.87
1006.58
989.016
970.738
951.985
932.763
912.874
892.728
873.725
854.575
832.251
809.757
786.701
763.381
739.639
715.546
691.171
666.362
641.409
615.925
590.285
577.281
564.278
551.176
537.896
524.616
511.229
497.621
484.013
470.176
456.145
442.093
427.504
412.916
397.719
382.411
366.256
349.621
332.201
323.185
313.781
304.081
294
)


113
(
294
332.63
367.87
400.304
430.672
459.261
486.304
512.012
536.559
560.086
582.699
604.482
625.498
645.794
665.408
684.325
702.534
720.132
737.13
753.537
769.358
784.596
799.251
813.236
826.648
839.486
851.748
863.434
874.541
885.07
895.018
904.385
913.17
921.374
928.996
936.023
942.472
948.348
953.653
958.389
962.558
966.145
969.162
971.619
973.521
974.872
975.676
975.939
975.627
974.753
973.346
971.409
968.955
965.997
962.549
958.48
953.897
948.85
943.358
937.271
930.666
923.654
916.175
908.073
899.613
890.708
881.195
871.38
861.025
850.207
839.122
827.331
815.33
802.784
789.873
776.603
762.817
748.832
734.206
719.462
704.078
688.536
672.468
656.139
639.395
622.274
604.85
586.905
568.786
549.941
530.857
521.034
511.211
501.23
490.965
480.699
470.269
459.5
448.732
437.655
426.315
414.951
402.974
390.997
378.435
365.765
352.401
338.694
324.453
317.138
309.598
301.897
294
)


113
(
294
314.66
334.141
352.513
369.975
386.581
402.379
417.429
431.789
445.513
458.649
471.237
483.311
494.9
506.028
516.687
526.875
536.664
546.066
555.094
563.757
572.064
580.022
587.588
594.825
601.739
608.332
614.61
620.576
626.234
631.585
636.635
641.383
645.834
649.988
653.842
657.405
660.68
663.671
666.377
668.802
670.937
672.789
674.362
675.659
676.682
677.433
677.913
678.105
678.014
677.656
677.03
676.141
674.995
673.6
671.885
669.905
667.684
665.231
662.465
659.425
656.168
652.66
648.815
644.772
640.486
635.858
631.058
625.95
620.571
615.034
609.072
602.979
596.547
589.877
582.974
575.72
568.33
560.48
552.545
544.122
535.573
526.599
517.402
507.85
497.96
487.798
477.152
466.344
454.86
443.156
437.05
430.943
424.7
418.213
411.726
405.11
398.227
391.344
384.243
376.956
369.654
361.967
354.279
346.265
338.192
329.772
321.198
312.39
307.906
303.334
298.702
294
)


113
(
294
295.762
297.481
299.155
300.788
302.381
303.931
305.441
306.909
308.337
309.725
311.075
312.386
313.66
314.897
316.094
317.251
318.371
319.456
320.505
321.518
322.497
323.44
324.343
325.211
326.045
326.845
327.611
328.343
329.041
329.706
330.337
330.934
331.497
332.028
332.524
332.987
333.418
333.816
334.182
334.515
334.816
335.083
335.319
335.522
335.694
335.834
335.943
336.018
336.06
336.071
336.05
335.998
335.915
335.803
335.652
335.47
335.258
335.019
334.741
334.43
334.092
333.723
333.312
332.877
332.411
331.902
331.371
330.801
330.197
329.572
328.894
328.198
327.459
326.69
325.892
325.048
324.188
323.27
322.341
321.353
320.35
319.296
318.216
317.096
315.939
314.752
313.515
312.262
310.944
309.607
308.916
308.225
307.523
306.802
306.08
305.349
304.599
303.849
303.084
302.307
301.529
300.728
299.928
299.109
298.288
297.449
296.603
295.746
295.314
294.879
294.441
294
)

)


10
(

113
(
294
384.412
474.154
560.763
645.682
728.688
808.8
887.17
963.108
1034.64
1110.53
1183.33
1250
1315.38
1369.23
1433.33
1490
1541.54
1595
1645
1684.62
1725
1766.67
1806.15
1836.92
1862.5
1887.5
1912.5
1935
1951.67
1968.33
1978.18
1993.33
2000
2003.64
2010
2011.82
2020
2020
2020
2011.82
2010
2002.73
1993
1977.27
1964.55
1946.36
1923.33
1905
1880
1864.62
1842.5
1814.62
1785.71
1764.29
1737.14
1708.57
1680
1653.33
1624.38
1593.12
1561.88
1530.62
1499.38
1469.41
1440
1412.22
1383.33
1350
1316.67
1283.33
1251.05
1219.47
1187.89
1156.32
1126
1096
1066
1036
1004
971.5
940.2
909.2
876.895
844.263
813.1
782.1
748.5
714.722
681.944
648.941
632.176
615.412
598.625
581.75
564.875
548
531.333
514.667
498
478.833
459.667
441.364
423.636
405.667
387.333
368.429
349.667
333
324.25
314
304.5
294
)


113
(
294
383.647
471.637
556.99
640.529
722.038
801.379
878.533
953.509
1026.25
1096.76
1164.83
1230.53
1293.71
1353.88
1411.3
1466.02
1517.99
1567.5
1613.8
1656.83
1697.35
1735.03
1769.93
1801.99
1830.91
1857.19
1880.94
1902.24
1921.13
1937.43
1951.37
1963.03
1972.65
1980.35
1986
1989.62
1991.31
1991.07
1988.72
1984.52
1978.44
1970.35
1960.51
1948.8
1935.39
1920.32
1903.64
1885.59
1866.2
1845.27
1823.26
1800.2
1776.31
1751.37
1725.54
1699.1
1672.08
1644.21
1615.92
1587.23
1557.99
1528.53
1498.68
1468.51
1438.21
1407.53
1376.8
1345.83
1314.78
1283.62
1252.41
1221.17
1189.91
1158.65
1127.39
1096.13
1064.85
1033.56
1002.17
970.755
939.161
907.524
875.651
843.719
811.479
779.204
746.59
713.9
680.866
647.698
630.957
614.216
597.418
580.392
563.366
546.34
528.969
511.597
494.226
476.515
458.804
440.95
422.999
404.994
386.905
368.788
350.573
332.049
322.769
313.483
304.241
294
)


113
(
294
381.009
463.609
545.213
624.885
702.372
779.147
852.893
922.752
990.554
1055.98
1119.03
1179.91
1238.38
1294.19
1347.43
1398.29
1446.68
1492.78
1536.09
1576.45
1614.69
1650.48
1683.8
1714.65
1742.79
1768.67
1792.23
1813.54
1832.76
1849.54
1864.02
1876.37
1886.7
1895.04
1901.38
1905.91
1908.38
1909
1907.75
1904.7
1900.14
1893.8
1885.94
1876.5
1865.59
1853.3
1839.62
1824.68
1808.51
1791.05
1772.43
1752.69
1732.12
1710.66
1688.01
1664.69
1640.8
1615.61
1590.06
1564.14
1537.19
1509.95
1482.3
1454.06
1425.55
1396.47
1367.28
1337.64
1307.84
1277.8
1247.5
1217.02
1186.32
1155.53
1124.52
1093.46
1062.2
1030.89
999.358
967.772
935.995
904.17
872.145
840.069
807.728
775.358
742.711
709.995
676.935
643.796
627.135
610.473
593.764
576.86
559.957
543.054
525.718
508.382
491.046
473.464
455.882
438.278
420.66
402.971
385.175
367.322
349.451
331.657
322.852
314.006
304.793
294
)


113
(
294
378.82
452.606
525.196
596.856
666.946
735.024
800.905
864.548
925.968
985.224
1042.25
1097.71
1152.22
1203.62
1252.47
1298.69
1342.24
1383.51
1422.57
1458.85
1493.52
1526.07
1556.29
1584.6
1610.85
1635.01
1657.13
1677.43
1696.14
1712.7
1727.1
1739.82
1750.9
1760.3
1767.89
1773.67
1777.8
1780.51
1781.75
1781.06
1779.01
1775.51
1770.69
1764.44
1756.89
1748
1737.85
1726.61
1714.11
1700.58
1685.9
1670.27
1653.84
1636
1617.24
1597.86
1577.93
1556.68
1534.8
1512.31
1489.11
1465.46
1440.96
1415.78
1390.29
1364.15
1337.78
1310.47
1282.98
1255.22
1226.97
1198.41
1169.51
1140.47
1110.83
1081.03
1050.94
1020.78
990.249
959.625
928.489
897.225
865.681
834.066
802.014
769.913
736.675
703.362
670.515
637.556
620.947
604.338
587.693
570.901
554.109
537.318
520.349
503.381
486.413
469.307
452.201
435.063
417.905
400.775
383.688
366.678
349.709
332.69
323.872
314.839
305.056
294
)


113
(
294
372.678
438.839
500.929
561.337
620.474
678.295
734.62
789.293
842.228
893.412
942.758
990.345
1036.13
1079.81
1121.63
1161.67
1199.91
1236.56
1271.18
1303.79
1334.87
1364.23
1391.97
1418.2
1444.36
1469.32
1491.86
1511.76
1529.75
1545.98
1560.97
1573.54
1584.61
1594.4
1602.75
1609.81
1615.37
1619.35
1622.1
1623.53
1623.72
1622.76
1620.55
1617.02
1612.54
1607.04
1600.3
1592.44
1583.6
1573.86
1563.21
1551.58
1539.09
1525.52
1511
1495.84
1480.08
1463.32
1445.87
1427.75
1408.49
1388.75
1368.15
1347.27
1326.26
1303.67
1280.83
1256.97
1232.78
1208.08
1182.67
1156.8
1130.21
1103.32
1075.11
1046.57
1018.42
990.358
961.712
932.921
903.585
874.112
844.145
814.054
783.441
752.77
721.62
690.37
658.697
626.899
610.856
594.813
578.739
562.542
546.344
530.146
513.871
497.595
481.32
465.055
448.79
432.558
416.346
400.126
383.894
367.506
350.876
333.7
324.531
315.121
304.997
294
)


113
(
294
361.805
419.599
472.217
522.017
569.843
616.174
661.227
705.076
747.733
789.204
829.418
868.408
906.119
942.308
977.125
1010.6
1042.73
1073.64
1103.01
1130.84
1157.49
1182.81
1206.85
1229.57
1250.83
1270.85
1289.66
1307.27
1323.69
1338.81
1352.69
1365.37
1376.33
1386.21
1395.54
1403.79
1410.98
1417.13
1422.15
1426.18
1429.27
1431.36
1432.57
1443.94
1451.21
1451.95
1450.85
1447.87
1443.6
1437.09
1429.17
1419.73
1409.05
1397.18
1382.91
1362.8
1334.85
1321.89
1308.37
1294.29
1279.18
1263.64
1247.33
1230.27
1212.89
1195.73
1178.05
1158.26
1138.07
1117.3
1095.94
1074.2
1051.78
1029.08
1005.62
981.978
957.595
933.027
907.758
882.313
856.206
829.933
803.055
776.025
748.37
720.645
692.377
664.001
635.19
606.27
591.683
577.095
562.482
547.772
533.061
518.35
503.547
488.744
473.941
459.021
444.1
429.041
413.891
398.564
382.971
366.959
350.471
333.189
323.952
314.518
304.539
294
)


113
(
294
347.554
394.692
437.519
477.482
515.189
551.125
585.637
618.954
651.226
682.558
712.97
742.537
771.256
798.993
825.858
851.877
877.036
901.427
924.828
947.237
968.875
989.653
1008.62
1022.89
1039.8
1056.23
1071.77
1086.44
1100.24
1113.05
1124.95
1135.92
1146.05
1155.37
1163.8
1171.38
1178.13
1184.04
1189.05
1193.24
1196.66
1199.24
1201.08
1202.09
1202.35
1201.85
1200.6
1198.65
1195.99
1192.43
1188.24
1183.35
1177.83
1171.57
1164.56
1156.98
1148.85
1139.77
1130.21
1120.15
1109.2
1097.86
1085.84
1073.14
1060.14
1046.14
1031.95
1016.94
1001.55
985.578
969.023
952.081
934.471
916.573
897.923
879.084
861.037
843.189
822.789
801.751
780.136
758.376
736.091
713.674
690.712
667.69
644.178
620.563
596.511
572.316
560.052
547.787
535.471
522.948
510.425
497.902
485.052
472.203
459.354
446.084
432.815
419.216
405.399
391.295
376.762
361.732
346.185
329.894
321.284
312.538
303.435
294
)


113
(
294
331.292
365.313
396.705
426.079
453.671
479.729
504.477
528.096
550.73
572.496
593.444
613.666
633.191
651.946
670.053
687.548
704.44
720.803
736.498
751.536
766.067
780.033
793.444
806.283
818.483
830.134
841.241
851.804
861.824
871.234
880.061
888.305
896.015
903.198
909.811
915.873
921.384
926.347
930.704
934.517
937.812
940.537
942.751
944.401
945.53
946.134
946.206
945.79
944.875
943.315
941.309
938.795
935.83
932.325
928.267
923.799
918.921
913.346
907.405
901.098
894.121
886.85
879.069
870.771
862.252
852.968
843.53
833.478
823.126
812.327
801.08
789.534
777.469
765.181
752.303
739.277
725.667
711.911
697.588
683.124
668.108
652.954
637.268
621.449
605.025
588.535
571.431
554.188
536.313
518.204
508.877
499.55
490.135
480.369
470.602
460.836
450.555
440.275
429.994
419.146
408.297
397.079
385.615
373.881
361.744
349.21
336.282
322.838
315.828
308.742
301.457
294
)


113
(
294
313.851
332.568
350.256
367.065
383.026
398.192
412.628
426.398
439.558
452.165
464.237
475.829
486.956
497.569
507.751
517.532
526.921
535.972
544.604
552.832
560.755
568.345
575.611
582.551
589.132
595.413
601.398
607.091
612.497
617.584
622.369
626.855
631.07
635.018
638.679
642.063
645.173
648.01
650.546
652.813
654.822
656.549
658.022
659.216
660.151
660.824
661.231
661.395
661.308
660.896
660.258
659.362
658.237
656.835
655.148
653.248
651.136
648.658
645.986
643.12
639.896
636.512
632.85
628.902
624.832
620.33
615.739
610.793
605.67
600.28
594.614
588.765
582.583
576.258
569.537
562.716
555.481
548.141
540.373
532.498
524.177
515.744
506.852
497.846
488.288
478.669
468.468
458.136
447.2
436.047
430.218
424.388
418.482
412.27
406.058
399.846
393.229
386.612
379.994
372.978
365.962
358.717
351.32
343.775
336.009
328.048
319.9
311.523
307.217
302.882
298.472
294
)


113
(
294
295.687
297.333
298.937
300.503
302.028
303.513
304.957
306.362
307.729
309.059
310.351
311.608
312.829
314.01
315.154
316.263
317.337
318.381
319.384
320.349
321.284
322.186
323.054
323.889
324.686
325.451
326.184
326.885
327.556
328.191
328.793
329.361
329.899
330.408
330.883
331.328
331.742
332.124
332.472
332.79
333.077
333.333
333.559
333.753
333.917
334.05
334.153
334.227
334.272
334.278
334.258
334.207
334.129
334.018
333.873
333.702
333.506
333.264
332.999
332.711
332.377
332.024
331.637
331.213
330.774
330.281
329.776
329.225
328.652
328.045
327.402
326.735
326.026
325.298
324.519
323.728
322.884
322.026
321.115
320.191
319.212
318.22
317.174
316.115
314.994
313.867
312.679
311.477
310.217
308.938
308.276
307.614
306.946
306.253
305.56
304.867
304.144
303.422
302.7
301.951
301.203
300.441
299.67
298.892
298.101
297.301
296.492
295.672
295.257
294.841
294.422
294
)

)


10
(

113
(
294
384.84
472.295
558.904
642.826
724.859
804.84
882.25
956.862
1029.28
1096.55
1163.33
1226.92
1286.15
1340
1398.33
1446.92
1493.08
1537.69
1576.15
1614.62
1653.08
1689.23
1720
1743.08
1771.54
1796.15
1812.31
1835.38
1852.31
1868.33
1885
1901.54
1916.92
1926.67
1935
1943.33
1951.82
1960
1960
1960
1960
1954.55
1945.83
1935
1917.69
1894.62
1871.54
1849.29
1827.86
1806.43
1780
1752
1725.33
1695
1665
1640
1612.35
1582.94
1553.53
1524.44
1496.67
1466.67
1433.33
1402
1372
1341.05
1309.47
1279
1249
1220
1191.43
1162.86
1134.29
1106.36
1079.09
1051
1021
990.952
960.476
930
900.909
871.818
841.619
811.143
781
751
720.7
690.2
659.053
627.474
611.778
596.222
580.667
565.111
548.75
532.188
515.625
499.4
483.4
467.4
450.5
433
415.5
398
380.5
363
347
331
321
312.333
304.5
294
)


113
(
294
383.037
470.48
554.95
637.454
717.775
795.7
871.115
943.941
1014.07
1080.9
1144.9
1205.99
1264.43
1320.17
1372.21
1421.33
1467.88
1511.87
1553.01
1591.09
1626.85
1660.37
1691.71
1720.11
1746.59
1771.22
1794.07
1814.69
1833.5
1850.79
1866.4
1880.4
1892.48
1902.74
1911.23
1917.89
1922.64
1925.23
1925.6
1923.65
1919.32
1912.87
1904.05
1893.15
1880.15
1864.85
1847.58
1828.71
1808.5
1786.49
1763.29
1739.15
1714.02
1687.89
1661.31
1633.94
1606.09
1577.92
1549.14
1520.19
1490.87
1461.41
1431.72
1401.95
1372.12
1342.28
1312.44
1282.72
1253.05
1223.53
1194.08
1164.75
1135.49
1106.26
1077.04
1047.79
1018.46
989.114
959.57
930.026
900.23
870.435
840.428
810.368
780.098
749.737
719.152
688.418
657.411
626.221
610.519
594.656
578.793
562.93
546.818
530.646
514.473
498.1
481.594
465.088
448.418
431.639
414.83
397.899
380.972
364.054
346.914
329.616
320.949
312.248
303.593
294
)


113
(
294
380.091
461.564
541.829
619.642
695.644
769.839
840.338
908.153
973.415
1035.3
1094.83
1151.93
1206.79
1259.33
1308.75
1355.69
1400.44
1442.99
1483
1520.31
1555.55
1588.74
1619.88
1648.22
1674.64
1699.14
1721.74
1742.03
1760.23
1776.66
1791.18
1803.89
1814.42
1823.05
1829.87
1834.96
1838.31
1839.69
1839.27
1837.1
1833.1
1827.57
1820.37
1811.64
1801.32
1789.49
1776.09
1761.36
1745.53
1728.16
1709.67
1690.23
1669.67
1647.87
1625.52
1602.15
1578.03
1553.41
1527.88
1502.05
1475.44
1448.56
1421.27
1393.56
1365.56
1337.31
1308.89
1280.2
1251.39
1222.37
1193.28
1164.07
1134.79
1105.4
1075.91
1046.38
1016.76
987.114
957.312
927.51
897.521
867.531
837.348
807.117
776.695
746.192
715.5
684.682
653.642
622.455
606.809
591.087
575.364
559.641
543.612
527.507
511.401
495.098
478.663
462.229
445.774
429.306