/*--------------------------------*- C++ -*----------------------------------*\
| =========                 |                                                 |
| \\      /  F ield         | OpenFOAM: The Open Source CFD Toolbox           |
|  \\    /   O peration     | Version:  2.3.0                                 |
|   \\  /    A nd           | Web:      www.OpenFOAM.org                      |
|    \\/     M anipulation  |                                                 |
\*---------------------------------------------------------------------------*/
FoamFile
{
    version     2.0;
    format      ascii;
    class       dictionary;
    location    "constant";
    object      CH2CO;
}
// * * * * * * * * * * * * * * * * * * * * * * * * * * * * * * * * * * * * * //

CH2CO_table
13
(

10
(

113
(
0
2.37125e-30
6.61699e-30
1.3381e-29
2.40754e-29
4.12571e-29
7.03048e-29
1.14102e-28
1.32414e-28
1.22755e-28
7.63974e-29
1.66923e-28
3.65e-28
8.14686e-28
1.79814e-27
3.54969e-27
1.09675e-26
2.72872e-26
8.0153e-26
3.2838e-25
7.49853e-25
5.54883e-24
4.19664e-23
1.66991e-22
3.45467e-21
1.41166e-20
2.98949e-19
7.93689e-18
2.61561e-17
9.95938e-16
1.73128e-14
9.04691e-14
2.4136e-12
8.97925e-12
1.52942e-10
1.81756e-09
5.49794e-09
5.26655e-08
2.09125e-07
6.40327e-07
1.9281e-06
3.78161e-06
6.96174e-06
1.02851e-05
1.37462e-05
1.66792e-05
1.94642e-05
2.18665e-05
2.41919e-05
2.63541e-05
2.84802e-05
3.05658e-05
3.28688e-05
3.53167e-05
3.84127e-05
4.18137e-05
4.67718e-05
5.23658e-05
6.07667e-05
7.04285e-05
8.44038e-05
0.000101023
0.000123336
0.000150907
0.000184537
0.000228056
0.000276028
0.000339789
0.0004044
0.0004894
0.0005744
0.000668579
0.000764507
0.000848811
0.000926288
0.000982616
0.00100851
0.00102541
0.00099842
0.000971429
0.000919291
0.000864665
0.000805637
0.000744133
0.000683336
0.000623695
0.000564606
0.000508642
0.000452679
0.000402268
0.000352029
0.000328551
0.000305592
0.000282633
0.000259673
0.000238303
0.000217236
0.000196169
0.000175595
0.000156291
0.000136987
0.000117936
0.000100734
8.35328e-05
6.73611e-05
5.25e-05
3.82914e-05
2.57605e-05
1.47232e-05
9.66971e-06
5.54114e-06
2.11524e-06
0
)


113
(
0
1.17728e-23
4.67785e-22
1.12871e-20
1.11637e-19
1.01904e-18
5.55116e-18
4.60945e-17
3.1743e-16
1.1043e-15
5.96464e-15
3.01351e-14
6.94779e-14
3.50288e-13
1.2045e-12
2.88386e-12
1.10678e-11
2.62079e-11
6.73713e-11
1.87274e-10
3.77003e-10
1.01589e-09
2.08783e-09
4.25026e-09
8.92554e-09
1.52067e-08
3.09152e-08
5.5143e-08
9.16304e-08
1.59964e-07
2.51185e-07
3.98552e-07
6.16419e-07
8.82698e-07
1.3126e-06
1.83911e-06
2.49368e-06
3.38052e-06
4.39145e-06
5.62705e-06
7.08131e-06
8.67091e-06
1.05326e-05
1.25463e-05
1.4706e-05
1.71239e-05
1.96321e-05
2.24731e-05
2.54901e-05
2.88813e-05
3.2711e-05
3.70351e-05
4.2296e-05
4.81815e-05
5.57976e-05
6.4228e-05
7.54426e-05
8.77945e-05
0.000104068
0.000122102
0.000144881
0.000170566
0.000201075
0.000236036
0.000274743
0.000319561
0.000366205
0.000419326
0.000472598
0.000529505
0.000586412
0.000640349
0.00069372
0.000739168
0.000779963
0.000812477
0.000833076
0.000849598
0.000846224
0.000842849
0.000819191
0.000793528
0.000757458
0.000715534
0.000670429
0.000620131
0.000569535
0.000517246
0.000464956
0.000414451
0.000364
0.000340112
0.000316646
0.00029318
0.000269714
0.000247898
0.000226397
0.000204896
0.000183956
0.000164457
0.000144958
0.000125705
0.000108261
9.0816e-05
7.42995e-05
5.89639e-05
4.42067e-05
3.09365e-05
1.88893e-05
1.32468e-05
8.36381e-06
3.93094e-06
0
)


113
(
0
2.01935e-11
7.02503e-11
1.82883e-10
3.98215e-10
7.71157e-10
1.39779e-09
2.60238e-09
4.44829e-09
6.94677e-09
1.11261e-08
1.73399e-08
2.51523e-08
3.85488e-08
5.54029e-08
7.72326e-08
1.10136e-07
1.4916e-07
2.04556e-07
2.75505e-07
3.60244e-07
4.76665e-07
6.11729e-07
7.89835e-07
1.01081e-06
1.2576e-06
1.58706e-06
1.96353e-06
2.40768e-06
2.96075e-06
3.57749e-06
4.33134e-06
5.21466e-06
6.18626e-06
7.42766e-06
8.79556e-06
1.03311e-05
1.22432e-05
1.43341e-05
1.67292e-05
1.9593e-05
2.2746e-05
2.64763e-05
3.06807e-05
3.53407e-05
4.09732e-05
4.6944e-05
5.41518e-05
6.19431e-05
7.09744e-05
8.09357e-05
9.19457e-05
0.000104495
0.00011807
0.000133428
0.000149625
0.000167989
0.000187237
0.000208554
0.000230801
0.000254819
0.000279922
0.000306183
0.000333511
0.000361328
0.00038994
0.000418533
0.000447055
0.000475502
0.00050215
0.000528797
0.000552081
0.000574725
0.000593642
0.00061037
0.000623889
0.000632791
0.000640136
0.000639881
0.000639627
0.000630417
0.000620323
0.000604156
0.000584575
0.000561782
0.000533752
0.000504792
0.00047056
0.000436328
0.000398285
0.000360125
0.000340333
0.000320317
0.000300301
0.000280284
0.000260258
0.00024023
0.000220203
0.000200339
0.000180897
0.000161456
0.000142186
0.000124172
0.000106158
8.87594e-05
7.21443e-05
5.59335e-05
4.07625e-05
2.65216e-05
1.96805e-05
1.32963e-05
6.94053e-06
0
)


113
(
0
1.0401e-08
2.43501e-08
4.44216e-08
7.16711e-08
1.07357e-07
1.53978e-07
2.16521e-07
2.93777e-07
3.85102e-07
5.07027e-07
6.53311e-07
8.18734e-07
1.0441e-06
1.29629e-06
1.58708e-06
1.95673e-06
2.365e-06
2.86555e-06
3.43792e-06
4.07399e-06
4.87157e-06
5.73082e-06
6.71451e-06
7.89249e-06
9.18435e-06
1.0701e-05
1.23571e-05
1.42136e-05
1.6358e-05
1.86755e-05
2.13738e-05
2.43185e-05
2.74327e-05
3.11387e-05
3.51174e-05
3.94575e-05
4.43321e-05
4.95127e-05
5.52656e-05
6.14419e-05
6.79511e-05
7.55071e-05
8.33418e-05
9.14445e-05
0.000100653
0.000110156
0.000120338
0.000131009
0.000142723
0.000154721
0.000167039
0.000180189
0.000193892
0.000208216
0.000222832
0.000237947
0.000253265
0.000269044
0.000285029
0.000301111
0.000317251
0.000333282
0.000349209
0.000364867
0.000380082
0.000395008
0.000408912
0.000422738
0.000434691
0.000446645
0.000456354
0.000465635
0.000472877
0.00047892
0.000483367
0.000485518
0.000486923
0.000484688
0.000482453
0.000475661
0.000468419
0.000458309
0.000446588
0.000432643
0.000415071
0.000396868
0.000375088
0.000353308
0.000328123
0.000302832
0.000289062
0.000274936
0.00026081
0.000246684
0.000231718
0.000216591
0.000201464
0.00018619
0.000170536
0.000154883
0.00013922
0.000123494
0.000107767
9.21858e-05
7.67905e-05
6.15353e-05
4.66401e-05
3.18642e-05
2.44866e-05
1.68737e-05
8.89138e-06
0
)


113
(
0
2.2117e-07
4.57804e-07
7.35778e-07
1.06292e-06
1.44473e-06
1.89205e-06
2.42364e-06
3.02484e-06
3.69007e-06
4.48013e-06
5.35782e-06
6.30437e-06
7.43107e-06
8.64163e-06
9.97286e-06
1.14883e-05
1.30935e-05
1.49118e-05
1.68795e-05
1.89797e-05
2.13565e-05
2.38503e-05
2.65894e-05
2.95782e-05
3.27158e-05
3.62547e-05
3.99452e-05
4.38537e-05
4.80273e-05
5.23743e-05
5.71243e-05
6.2196e-05
6.74763e-05
7.29025e-05
7.86384e-05
8.47848e-05
9.12807e-05
9.79298e-05
0.000104826
0.000112107
0.000119617
0.000127546
0.000135694
0.000144051
0.000152454
0.000160947
0.000170099
0.000179366
0.000188877
0.000198355
0.000207797
0.000217421
0.000227168
0.000236924
0.000246685
0.000256467
0.000266259
0.000275794
0.000285215
0.000294383
0.000303395
0.000312057
0.000320396
0.000328346
0.00033566
0.000342769
0.000349151
0.000355466
0.000360177
0.000364889
0.000367936
0.000370667
0.000372348
0.000373411
0.000373168
0.000371044
0.00036864
0.000364871
0.000361102
0.000354916
0.000348492
0.000340288
0.000331083
0.000320806
0.00030878
0.000296339
0.000281547
0.000266754
0.000249446
0.000232059
0.000222496
0.000212657
0.000202819
0.000192981
0.000182368
0.000171607
0.000160846
0.000149902
0.00013849
0.000127077
0.000115616
0.000103803
9.19896e-05
8.00439e-05
6.793e-05
5.56866e-05
4.31102e-05
2.99906e-05
2.32463e-05
1.59885e-05
8.345e-06
0
)


113
(
0
1.18445e-06
2.33738e-06
3.53246e-06
4.80198e-06
6.16229e-06
7.63452e-06
9.24794e-06
1.09728e-05
1.27983e-05
1.48078e-05
1.6936e-05
1.91576e-05
2.16026e-05
2.41431e-05
2.68207e-05
2.96907e-05
3.26507e-05
3.58157e-05
3.91133e-05
4.25285e-05
4.61708e-05
4.9904e-05
5.3824e-05
5.79039e-05
6.20789e-05
6.64957e-05
7.10118e-05
7.56706e-05
8.0517e-05
8.54578e-05
9.05771e-05
9.58283e-05
0.000101171
0.000106888
0.000112616
0.000118357
0.000124245
0.0001302
0.000136269
0.000142431
0.000148649
0.000154967
0.000161969
0.000169628
0.000176686
0.00018359
0.000190166
0.00019675
0.000203353
0.000209762
0.000215952
0.000221903
0.000227695
0.000233043
0.000238181
0.00024135
0.000243716
0.000247764
0.000252569
0.000257037
0.000261298
0.000265221
0.00026883
0.000272148
0.000274991
0.0002777
0.000279929
0.000282106
0.000283014
0.000283923
0.000283907
0.000283715
0.000282757
0.000281349
0.000279396
0.000276658
0.000273676
0.000269498
0.00026532
0.000259742
0.000254026
0.000247279
0.000239951
0.000232
0.000223029
0.000213813
0.000203214
0.000192614
0.000180514
0.000168367
0.000161762
0.000154989
0.000148216
0.000141444
0.000134163
0.000126785
0.000119408
0.000111881
0.000103973
9.60644e-05
8.80927e-05
7.96576e-05
7.12225e-05
6.25136e-05
5.34563e-05
4.41774e-05
3.43291e-05
2.38687e-05
1.84445e-05
1.2601e-05
6.50463e-06
0
)


113
(
0
2.76091e-06
5.37112e-06
7.91583e-06
1.04538e-05
1.3015e-05
1.56247e-05
1.83129e-05
2.10688e-05
2.38872e-05
2.6824e-05
2.98372e-05
3.29104e-05
3.61239e-05
3.93948e-05
4.27483e-05
4.62113e-05
4.97242e-05
5.33467e-05
5.70356e-05
6.07833e-05
6.46369e-05
6.84248e-05
7.19921e-05
7.58239e-05
7.98058e-05
8.38589e-05
8.79366e-05
9.205e-05
9.62012e-05
0.000100369
0.000104564
0.000108771
0.000112986
0.000117207
0.000121424
0.000125636
0.000129826
0.000134002
0.000138147
0.000142252
0.000146329
0.000150339
0.000154298
0.000158209
0.000162015
0.000165783
0.000169416
0.000172988
0.000176435
0.000179778
0.000183005
0.00018608
0.000189052
0.000191823
0.0001945
0.000196936
0.000199274
0.000201344
0.000203294
0.000204974
0.000206488
0.000207749
0.000208777
0.0002096
0.000210089
0.000210448
0.000210349
0.000210223
0.000209484
0.000208744
0.000207425
0.000205996
0.000204103
0.000201938
0.000199453
0.000196507
0.000193519
0.000190328
0.000187137
0.000182516
0.000177755
0.000172445
0.000166826
0.000160879
0.000154394
0.00014778
0.000140433
0.000133086
0.000124917
0.000116722
0.000112308
0.000107793
0.000103278
9.87637e-05
9.38938e-05
8.89563e-05
8.40187e-05
7.89541e-05
7.35629e-05
6.81716e-05
6.27185e-05
5.68118e-05
5.09051e-05
4.47377e-05
3.82383e-05
3.15576e-05
2.44105e-05
1.6845e-05
1.29332e-05
8.77631e-06
4.48789e-06
0
)


113
(
0
3.77426e-06
7.34347e-06
1.07525e-05
1.40532e-05
1.7273e-05
2.0427e-05
2.35303e-05
2.66073e-05
2.96643e-05
3.26993e-05
3.57271e-05
3.87493e-05
4.17653e-05
4.47801e-05
4.77931e-05
5.08041e-05
5.38137e-05
5.68196e-05
5.98211e-05
6.28187e-05
6.58043e-05
6.87836e-05
7.17486e-05
7.46972e-05
7.76359e-05
8.05424e-05
8.34323e-05
8.62985e-05
8.91265e-05
9.19332e-05
9.46959e-05
9.74198e-05
0.000100117
0.000102744
0.000105337
0.000107884
0.000110356
0.000112789
0.000115152
0.000117442
0.000119685
0.000121828
0.000123906
0.000125922
0.000127819
0.000129675
0.000131392
0.000133052
0.000134594
0.000136047
0.000137398
0.000138626
0.000139772
0.000140765
0.000141685
0.000142433
0.000143109
0.000143604
0.000144016
0.000144252
0.00014438
0.00014435
0.000144175
0.000143877
0.000143379
0.000142807
0.000141969
0.000141117
0.000139923
0.000138728
0.000137221
0.000135655
0.000133844
0.000131891
0.000129772
0.000127417
0.000124991
0.000122219
0.000119446
0.00011628
0.000113074
0.000109582
0.000105928
0.000102097
9.79783e-05
9.37863e-05
8.91809e-05
8.45754e-05
7.94698e-05
7.43488e-05
7.15773e-05
6.87391e-05
6.59009e-05
6.30628e-05
5.99701e-05
5.68289e-05
5.36877e-05
5.0453e-05
4.69782e-05
4.35033e-05
3.99848e-05
3.61462e-05
3.23075e-05
2.83018e-05
2.40832e-05
1.97618e-05
1.51756e-05
1.03787e-05
7.91626e-06
5.34198e-06
2.71182e-06
0
)


113
(
0
3.12794e-06
6.12043e-06
8.98451e-06
1.17428e-05
1.44064e-05
1.69758e-05
1.94487e-05
2.18553e-05
2.4205e-05
2.64631e-05
2.86692e-05
3.08346e-05
3.29128e-05
3.49573e-05
3.69534e-05
3.8887e-05
4.07923e-05
4.26354e-05
4.44403e-05
4.62114e-05
4.79195e-05
4.96028e-05
5.12354e-05
5.28248e-05
5.43887e-05
5.58869e-05
5.73576e-05
5.87888e-05
6.01664e-05
6.15163e-05
6.28127e-05
6.40673e-05
6.52937e-05
6.64518e-05
6.75795e-05
6.86668e-05
6.96929e-05
7.06884e-05
7.16301e-05
7.25201e-05
7.33776e-05
7.41669e-05
7.49146e-05
7.56222e-05
7.62569e-05
7.68676e-05
7.73964e-05
7.78939e-05
7.8325e-05
7.87079e-05
7.90366e-05
7.9301e-05
7.95226e-05
7.96675e-05
7.97763e-05
7.98007e-05
7.97907e-05
7.96944e-05
7.95594e-05
7.93431e-05
7.90769e-05
7.87396e-05
7.83364e-05
7.78789e-05
7.73326e-05
7.67536e-05
7.60585e-05
7.53571e-05
7.45066e-05
7.36561e-05
7.26696e-05
7.1657e-05
7.05378e-05
6.9356e-05
6.8101e-05
6.67408e-05
6.53484e-05
6.37987e-05
6.2249e-05
6.05149e-05
5.87626e-05
5.68711e-05
5.49013e-05
5.28424e-05
5.06383e-05
4.83962e-05
4.59386e-05
4.3481e-05
4.07575e-05
3.80259e-05
3.65484e-05
3.50356e-05
3.35228e-05
3.201e-05
3.03671e-05
2.86994e-05
2.70318e-05
2.53195e-05
2.34924e-05
2.16653e-05
1.98192e-05
1.78338e-05
1.58483e-05
1.37974e-05
1.16632e-05
9.49271e-06
7.22907e-06
4.89786e-06
3.71195e-06
2.49271e-06
1.25763e-06
0
)


113
(
0
3.58134e-07
7.0788e-07
1.04882e-06
1.38176e-06
1.70695e-06
2.02381e-06
2.33123e-06
2.63164e-06
2.92585e-06
3.20925e-06
3.48599e-06
3.75749e-06
4.01696e-06
4.27148e-06
4.51887e-06
4.75662e-06
4.9899e-06
5.2132e-06
5.4302e-06
5.6416e-06
5.84242e-06
6.03905e-06
6.22708e-06
6.4078e-06
6.58419e-06
6.74951e-06
6.91025e-06
7.0644e-06
7.20975e-06
7.3506e-06
7.48284e-06
7.60847e-06
7.72966e-06
7.84032e-06
7.9464e-06
8.04641e-06
8.13743e-06
8.22401e-06
8.30291e-06
8.37457e-06
8.44172e-06
8.49959e-06
8.55192e-06
8.59893e-06
8.6365e-06
8.67098e-06
8.69511e-06
8.71538e-06
8.72747e-06
8.73377e-06
8.73355e-06
8.72578e-06
8.71298e-06
8.69138e-06
8.66564e-06
8.63043e-06
8.59136e-06
8.54281e-06
8.49001e-06
8.42847e-06
8.36157e-06
8.28717e-06
8.20584e-06
8.1189e-06
8.02281e-06
7.9234e-06
7.81225e-06
7.70049e-06
7.57398e-06
7.44748e-06
7.30781e-06
7.16564e-06
7.01343e-06
6.85531e-06
6.69052e-06
6.5161e-06
6.33885e-06
6.14772e-06
5.9566e-06
5.74989e-06
5.54164e-06
5.32223e-06
5.09653e-06
4.86412e-06
4.62078e-06
4.37478e-06
4.11374e-06
3.8527e-06
3.57468e-06
3.29613e-06
3.15041e-06
3.00265e-06
2.85489e-06
2.70714e-06
2.55266e-06
2.3969e-06
2.24113e-06
2.08332e-06
1.92022e-06
1.75713e-06
1.59325e-06
1.42366e-06
1.25407e-06
1.08208e-06
9.07022e-07
7.30753e-07
5.51368e-07
3.69891e-07
2.78529e-07
1.86191e-07
9.34077e-08
0
)

)


10
(

113
(
0
1.03459e-27
2.83669e-27
5.38429e-27
8.8326e-27
1.3656e-26
2.07575e-26
3.18936e-26
5.06268e-26
8.4141e-26
1.46451e-25
2.64647e-25
4.92232e-25
9.36876e-25
1.81046e-24
3.67386e-24
8.48403e-24
2.10651e-23
5.70434e-23
1.72502e-22
5.98022e-22
2.33888e-21
8.70896e-21
6.05108e-20
4.95316e-19
4.4827e-18
4.28367e-17
4.18883e-16
4.08823e-15
3.88559e-14
3.50744e-13
2.94364e-12
2.27195e-11
1.59616e-10
1.0396e-09
6.97032e-09
4.12964e-08
2.00913e-07
7.86468e-07
2.44196e-06
6.01379e-06
1.19619e-05
1.95765e-05
2.75996e-05
3.51404e-05
4.20619e-05
4.88382e-05
5.62857e-05
6.55159e-05
7.76068e-05
9.33354e-05
0.000113523
0.000138806
0.000169662
0.000206396
0.000250999
0.000301899
0.000357788
0.000417733
0.000480963
0.00054337
0.000603076
0.000657946
0.000701191
0.000736281
0.000760745
0.000770285
0.000773125
0.000764804
0.000749678
0.000730607
0.000705248
0.000678808
0.000649865
0.000620243
0.000589951
0.000559496
0.000528977
0.000498771
0.000468647
0.000439135
0.000409817
0.000381145
0.00035286
0.00032519
0.000298125
0.000271545
0.000245803
0.000220339
0.000196033
0.000172101
0.000160573
0.000149044
0.000137755
0.000126896
0.000116038
0.000105419
9.52948e-05
8.51703e-05
7.54771e-05
6.61514e-05
5.68589e-05
4.84078e-05
3.99568e-05
3.22929e-05
2.47734e-05
1.81963e-05
1.21105e-05
6.82088e-06
4.48386e-06
2.54675e-06
9.68484e-07
0
)


113
(
0
4.80504e-23
1.48603e-21
3.58433e-20
3.79202e-19
2.79636e-18
2.15003e-17
1.44222e-16
8.13722e-16
4.16029e-15
2.0106e-14
8.35091e-14
3.1988e-13
1.10121e-12
3.33904e-12
9.74945e-12
3.02213e-11
8.58705e-11
2.261e-10
5.55626e-10
1.28149e-09
2.78757e-09
5.76194e-09
1.23088e-08
2.49142e-08
4.79436e-08
8.8292e-08
1.56546e-07
2.6883e-07
4.4713e-07
7.1952e-07
1.12289e-06
1.70337e-06
2.51861e-06
3.63541e-06
5.13654e-06
7.0902e-06
9.57945e-06
1.27002e-05
1.65366e-05
2.11929e-05
2.68165e-05
3.35413e-05
4.14996e-05
5.08742e-05
6.18648e-05
7.46865e-05
8.95796e-05
0.00010696
0.000127078
0.000149993
0.000175828
0.000204566
0.000236106
0.000270273
0.000307341
0.000346187
0.00038611
0.000426629
0.000466872
0.000505539
0.00054234
0.000576471
0.000605405
0.000630754
0.000651451
0.000664894
0.000674642
0.000677712
0.000675309
0.000669735
0.000656845
0.000642137
0.000622868
0.000601374
0.000577691
0.000552003
0.000525538
0.000497756
0.000469808
0.00044145
0.000413146
0.000385023
0.00035715
0.000329677
0.000302701
0.000276126
0.000250341
0.000224819
0.000200443
0.000176442
0.00016488
0.000153319
0.000141996
0.000131106
0.000120215
0.00010956
9.9391e-05
8.92222e-05
7.94714e-05
7.00766e-05
6.0713e-05
5.21405e-05
4.3568e-05
3.57228e-05
2.8011e-05
2.11552e-05
1.46993e-05
8.90024e-06
6.25817e-06
3.92218e-06
1.83847e-06
0
)


113
(
0
5.84501e-11
2.0457e-10
5.38714e-10
1.17237e-09
2.31703e-09
4.29971e-09
7.59634e-09
1.30018e-08
2.14371e-08
3.42752e-08
5.30958e-08
8.01728e-08
1.18593e-07
1.7195e-07
2.45791e-07
3.48847e-07
4.88015e-07
6.71083e-07
9.08125e-07
1.21195e-06
1.59772e-06
2.08226e-06
2.71478e-06
3.50008e-06
4.46417e-06
5.64379e-06
7.06202e-06
8.76751e-06
1.08166e-05
1.32372e-05
1.60946e-05
1.94532e-05
2.33448e-05
2.7855e-05
3.30359e-05
3.89797e-05
4.57267e-05
5.32905e-05
6.18465e-05
7.12959e-05
8.18451e-05
9.34517e-05
0.000106144
0.000119912
0.00013486
0.000150823
0.000167814
0.000185946
0.000205058
0.000225008
0.000245687
0.00026694
0.000288646
0.000310711
0.000332888
0.000354921
0.000376654
0.000397967
0.0004184
0.000437747
0.000456083
0.000473124
0.000488011
0.000501479
0.000513127
0.00052194
0.000529254
0.000533802
0.00053585
0.000536448
0.000533112
0.000528604
0.000521069
0.000511638
0.00050034
0.000486501
0.000471679
0.000454119
0.000436097
0.000415808
0.000395125
0.000373129
0.00035069
0.000327544
0.000304094
0.000280397
0.000256646
0.000232876
0.000209506
0.000186362
0.000175057
0.000163751
0.000152607
0.000141755
0.000130902
0.000120211
0.000109855
9.9498e-05
8.94452e-05
7.96512e-05
6.98859e-05
6.08476e-05
5.18094e-05
4.33259e-05
3.49439e-05
2.71852e-05
1.97395e-05
1.27917e-05
9.50368e-06
6.40839e-06
3.34939e-06
0
)


113
(
0
3.60972e-08
8.44112e-08
1.5401e-07
2.4777e-07
3.71521e-07
5.32246e-07
7.37693e-07
9.96299e-07
1.3171e-06
1.70976e-06
2.18462e-06
2.75451e-06
3.43307e-06
4.23208e-06
5.17592e-06
6.28167e-06
7.5592e-06
9.02023e-06
1.06838e-05
1.25779e-05
1.47235e-05
1.70865e-05
1.98364e-05
2.2877e-05
2.62478e-05
2.99726e-05
3.40756e-05
3.85736e-05
4.34781e-05
4.88196e-05
5.46361e-05
6.08874e-05
6.75661e-05
7.47722e-05
8.25988e-05
9.0756e-05
9.9455e-05
0.000108619
0.000118333
0.000128425
0.000139065
0.000150059
0.000161521
0.000173303
0.000185371
0.000197769
0.00021051
0.000223295
0.000236332
0.000249408
0.000262502
0.000275538
0.000288447
0.000301196
0.00031361
0.000325695
0.000337383
0.000348631
0.000359211
0.000369097
0.000378372
0.000386893
0.00039426
0.0004009
0.000406619
0.000410955
0.000414559
0.000416813
0.00041782
0.000418105
0.00041642
0.000414109
0.000410164
0.000405095
0.00039892
0.000391101
0.000382646
0.000372352
0.000361714
0.000349125
0.00033616
0.000321949
0.000307058
0.000291086
0.000274284
0.000256816
0.00023849
0.000219878
0.000200987
0.000181991
0.000172371
0.00016275
0.000153118
0.000143466
0.000133814
0.000124191
0.000114631
0.00010507
9.56156e-05
8.62514e-05
7.68981e-05
6.78218e-05
5.87456e-05
4.99816e-05
4.12751e-05
3.29631e-05
2.48164e-05
1.68651e-05
1.29216e-05
8.89701e-06
4.6787e-06
0
)


113
(
0
5.3582e-07
1.09506e-06
1.73969e-06
2.48336e-06
3.34166e-06
4.32751e-06
5.45088e-06
6.72002e-06
8.14216e-06
9.72411e-06
1.14726e-05
1.33943e-05
1.54962e-05
1.77848e-05
2.02819e-05
2.30083e-05
2.59458e-05
2.91001e-05
3.2477e-05
3.60821e-05
3.99207e-05
4.39983e-05
4.83559e-05
5.30101e-05
5.79521e-05
6.31839e-05
6.86475e-05
7.43067e-05
8.02115e-05
8.63472e-05
9.25523e-05
9.92395e-05
0.000105921
0.000112901
0.000120051
0.000127404
0.000134869
0.000142645
0.000150335
0.000158241
0.000166374
0.000174394
0.000182618
0.000190812
0.000199037
0.000207227
0.000215429
0.000223506
0.000231452
0.000239327
0.000247044
0.00025459
0.000261943
0.000269049
0.000275843
0.000282327
0.000288502
0.000294353
0.0002997
0.000304609
0.000309127
0.000313156
0.00031651
0.000319484
0.000321997
0.000323631
0.000324839
0.0003253
0.000325029
0.000324334
0.00032238
0.000320027
0.00031663
0.000312493
0.000307627
0.000301967
0.000296
0.000288996
0.000281787
0.000273358
0.000264632
0.00025492
0.00024474
0.000233813
0.000222266
0.000210218
0.00019742
0.000184371
0.000170471
0.000156357
0.000149054
0.000141751
0.000134356
0.000126795
0.000119234
0.000111621
0.000103902
9.61826e-05
8.84314e-05
8.06528e-05
7.28748e-05
6.51125e-05
5.73501e-05
4.96168e-05
4.18882e-05
3.41271e-05
2.62737e-05
1.82046e-05
1.40486e-05
9.65931e-06
5.0268e-06
0
)


113
(
0
1.89879e-06
3.70926e-06
5.55458e-06
7.48362e-06
9.52663e-06
1.17033e-05
1.40245e-05
1.6495e-05
1.91156e-05
2.18855e-05
2.4803e-05
2.7866e-05
3.10726e-05
3.44207e-05
3.79184e-05
4.15708e-05
4.5358e-05
4.92774e-05
5.33262e-05
5.7502e-05
6.18016e-05
6.62221e-05
7.07765e-05
7.54407e-05
8.02102e-05
8.508e-05
9.00446e-05
9.50983e-05
0.000100235
0.000105447
0.000110729
0.000116071
0.000121492
0.000127444
0.000132936
0.000138453
0.000143985
0.000149524
0.000155058
0.000160579
0.000166075
0.000171535
0.000177161
0.000184064
0.000190088
0.000195664
0.000201073
0.000206281
0.000211248
0.000215861
0.000220205
0.000224258
0.000227994
0.000231427
0.000234358
0.000236711
0.000237604
0.000237413
0.000239786
0.000241845
0.000243648
0.000245147
0.000246211
0.000247011
0.000247479
0.000247597
0.000247432
0.000246643
0.000245443
0.000244006
0.000241903
0.00023959
0.000236733
0.00023349
0.000229867
0.000225672
0.000221255
0.000216096
0.0002108
0.000204739
0.000198486
0.000191597
0.000184394
0.000176692
0.000168558
0.000160076
0.000151047
0.000141836
0.000131972
0.000121935
0.000116716
0.000111496
0.000106191
0.000100734
9.52759e-05
8.97542e-05
8.41003e-05
7.84464e-05
7.26988e-05
6.68714e-05
6.10371e-05
5.50263e-05
4.90156e-05
4.28068e-05
3.6561e-05
3.00047e-05
2.32426e-05
1.61221e-05
1.24093e-05
8.47909e-06
4.36635e-06
0
)


113
(
0
3.34711e-06
6.46988e-06
9.47998e-06
1.2451e-05
1.54212e-05
1.84177e-05
2.1459e-05
2.45563e-05
2.77158e-05
3.09401e-05
3.42298e-05
3.7584e-05
4.10011e-05
4.44789e-05
4.80188e-05
5.16199e-05
5.52714e-05
5.897e-05
6.2712e-05
6.64939e-05
7.03122e-05
7.41631e-05
7.75866e-05
8.13549e-05
8.51851e-05
8.90195e-05
9.28529e-05
9.66802e-05
0.000100496
0.000104296
0.000108073
0.000111823
0.00011554
0.000119218
0.00012285
0.000126431
0.000129956
0.000133419
0.000136815
0.000140137
0.000143377
0.000146531
0.000149592
0.000152556
0.000155416
0.000158168
0.000160805
0.000163314
0.000165688
0.000167929
0.00017003
0.000171988
0.000173799
0.000175463
0.00017693
0.000178225
0.000179357
0.000180331
0.000181082
0.000181628
0.000182009
0.000182195
0.000182108
0.000181856
0.000181399
0.000180645
0.000179738
0.000178554
0.000177118
0.000175538
0.000173555
0.000171447
0.000169012
0.000166347
0.000163457
0.000160227
0.000156865
0.000153513
0.00015008
0.000145642
0.000141097
0.000136193
0.00013111
0.000125743
0.000120126
0.000114309
0.000108166
0.000101915
9.52529e-05
8.84692e-05
8.49361e-05
8.14031e-05
7.77994e-05
7.40681e-05
7.03368e-05
6.65384e-05
6.26012e-05
5.86641e-05
5.4605e-05
5.0442e-05
4.62692e-05
4.18481e-05
3.74269e-05
3.27525e-05
2.80315e-05
2.29815e-05
1.77526e-05
1.22351e-05
9.3657e-06
6.35776e-06
3.24565e-06
0
)


113
(
0
3.81681e-06
7.3993e-06
1.07984e-05
1.40708e-05
1.72414e-05
2.03304e-05
2.33554e-05
2.63301e-05
2.9265e-05
3.21677e-05
3.50436e-05
3.78967e-05
4.07294e-05
4.35435e-05
4.63386e-05
4.9114e-05
5.18714e-05
5.46099e-05
5.73285e-05
6.00258e-05
6.27001e-05
6.53496e-05
6.79677e-05
7.05563e-05
7.31132e-05
7.5636e-05
7.81224e-05
8.05696e-05
8.29752e-05
8.53366e-05
8.7651e-05
8.99157e-05
9.21282e-05
9.42856e-05
9.63838e-05
9.84218e-05
0.000100397
0.000102308
0.00010415
0.000105923
0.000107622
0.000109244
0.000110788
0.000112252
0.000113634
0.000114933
0.000116145
0.000117263
0.000118284
0.000119212
0.000120044
0.00012078
0.000121418
0.000121961
0.000122377
0.000122685
0.000122893
0.000123003
0.000122979
0.000122833
0.000122589
0.000122232
0.000121718
0.000121111
0.000120387
0.000119498
0.000118525
0.0001174
0.000116138
0.000114799
0.000113244
0.000111622
0.000109828
0.000107914
0.000105881
0.000103671
0.000101393
9.88865e-05
9.63376e-05
9.35517e-05
9.07056e-05
8.7659e-05
8.45099e-05
8.1198e-05
7.77362e-05
7.41537e-05
7.03626e-05
6.6502e-05
6.23549e-05
5.81153e-05
5.58877e-05
5.36601e-05
5.13742e-05
4.89827e-05
4.65912e-05
4.41417e-05
4.15723e-05
3.90028e-05
3.63289e-05
3.3566e-05
3.07951e-05
2.78242e-05
2.48533e-05
2.16973e-05
1.85075e-05
1.51034e-05
1.15951e-05
7.92556e-06
6.0327e-06
4.07267e-06
2.06528e-06
0
)


113
(
0
2.79086e-06
5.45167e-06
7.99064e-06
1.04303e-05
1.27767e-05
1.50357e-05
1.72138e-05
1.93178e-05
2.13534e-05
2.3326e-05
2.52399e-05
2.70987e-05
2.89053e-05
3.06624e-05
3.23687e-05
3.40239e-05
3.56354e-05
3.72043e-05
3.87316e-05
4.02181e-05
4.16644e-05
4.30708e-05
4.44318e-05
4.57541e-05
4.7038e-05
4.82834e-05
4.94902e-05
5.06585e-05
5.1788e-05
5.28785e-05
5.39299e-05
5.49419e-05
5.59141e-05
5.68461e-05
5.77369e-05
5.8587e-05
5.93962e-05
6.01644e-05
6.08911e-05
6.1576e-05
6.22172e-05
6.2815e-05
6.33696e-05
6.38808e-05
6.4348e-05
6.4771e-05
6.51497e-05
6.54803e-05
6.5763e-05
6.59997e-05
6.61898e-05
6.63335e-05
6.64315e-05
6.64843e-05
6.64786e-05
6.64234e-05
6.63226e-05
6.61778e-05
6.59728e-05
6.57138e-05
6.54118e-05
6.50598e-05
6.46392e-05
6.41779e-05
6.36661e-05
6.30825e-05
6.24622e-05
6.17758e-05
6.10302e-05
6.02503e-05
5.93759e-05
5.8472e-05
5.74912e-05
5.64559e-05
5.53672e-05
5.41965e-05
5.29941e-05
5.1683e-05
5.03514e-05
4.89031e-05
4.74241e-05
4.58425e-05
4.42064e-05
4.24836e-05
4.0678e-05
3.88055e-05
3.68141e-05
3.47829e-05
3.25851e-05
3.03334e-05
2.91449e-05
2.79563e-05
2.67346e-05
2.54528e-05
2.4171e-05
2.28577e-05
2.14793e-05
2.01009e-05
1.86695e-05
1.7193e-05
1.57128e-05
1.41394e-05
1.25659e-05
1.09139e-05
9.24749e-06
7.49803e-06
5.71151e-06
3.86921e-06
2.92888e-06
1.96759e-06
9.92161e-07
0
)


113
(
0
2.92368e-07
5.77727e-07
8.55801e-07
1.12737e-06
1.39229e-06
1.65048e-06
1.90194e-06
2.14674e-06
2.385e-06
2.61686e-06
2.84242e-06
3.06178e-06
3.27503e-06
3.48224e-06
3.68303e-06
3.87713e-06
4.06533e-06
4.24768e-06
4.42421e-06
4.59496e-06
4.75993e-06
4.91913e-06
5.07171e-06
5.21864e-06
5.35994e-06
5.49561e-06
5.62567e-06
5.75012e-06
5.86899e-06
5.98228e-06
6.09e-06
6.19216e-06
6.28879e-06
6.37988e-06
6.46534e-06
6.5453e-06
6.61983e-06
6.68894e-06
6.75265e-06
6.81097e-06
6.86375e-06
6.91107e-06
6.95302e-06
6.98964e-06
7.02092e-06
7.04689e-06
7.06758e-06
7.08261e-06
7.09207e-06
7.09622e-06
7.09505e-06
7.08864e-06
7.07708e-06
7.06048e-06
7.03742e-06
7.00895e-06
6.97553e-06
6.93734e-06
6.89269e-06
6.8423e-06
6.78736e-06
6.72716e-06
6.6598e-06
6.58823e-06
6.51143e-06
6.42727e-06
6.3394e-06
6.24482e-06
6.14431e-06
6.04036e-06
5.92707e-06
5.8109e-06
5.68723e-06
5.55836e-06
5.42435e-06
5.28266e-06
5.13799e-06
4.98338e-06
4.82692e-06
4.66011e-06
4.49067e-06
4.31247e-06
4.1298e-06
3.94005e-06
3.74388e-06
3.54253e-06
3.33251e-06
3.11961e-06
2.8954e-06
2.66782e-06
2.5501e-06
2.43238e-06
2.31276e-06
2.1897e-06
2.06664e-06
1.94193e-06
1.81382e-06
1.68571e-06
1.55508e-06
1.42231e-06
1.28938e-06
1.15241e-06
1.01545e-06
8.7537e-07
7.34728e-07
5.91055e-07
4.4612e-07
2.99325e-07
2.25311e-07
1.50651e-07
7.55698e-08
0
)

)


10
(

113
(
0
8.20468e-24
2.21154e-23
4.05e-23
6.37212e-23
9.4057e-23
1.35332e-22
1.95868e-22
2.92811e-22
4.58261e-22
7.73825e-22
1.40692e-21
2.72e-21
5.47231e-21
1.19954e-20
3.29667e-20
1.004e-19
3.13692e-19
8.695e-19
2.9245e-18
1.21785e-17
5.355e-17
2.426e-16
9.94308e-16
3.23585e-15
1.804e-14
1.00542e-13
5.36833e-13
2.645e-12
1.08808e-11
4.59892e-11
2.70818e-10
1.39333e-09
6.315e-09
2.61545e-08
1.01418e-07
3.42182e-07
1.00636e-06
2.6e-06
6.19091e-06
1.23182e-05
2.176e-05
3.27455e-05
4.59e-05
6.04727e-05
7.72545e-05
9.79818e-05
0.000123
0.000152167
0.000188
0.000226462
0.000272417
0.000322
0.000371571
0.000419429
0.000465
0.000507714
0.000547
0.000574333
0.0005955
0.0006105
0.0006165
0.0006185
0.0006135
0.000603765
0.000592
0.000576444
0.000560111
0.000540667
0.000520778
0.000500222
0.000479684
0.000459158
0.000437895
0.000416316
0.000396
0.000376
0.000356
0.000336
0.000316
0.000296
0.0002768
0.0002578
0.000238842
0.000219895
0.00020225
0.00018475
0.000167
0.000149333
0.000132667
0.000116324
0.000108529
0.000100735
9.305e-05
8.58e-05
7.855e-05
7.13e-05
6.47667e-05
5.82333e-05
5.17e-05
4.51167e-05
3.85333e-05
3.25455e-05
2.69545e-05
2.16222e-05
1.66778e-05
1.20771e-05
7.935e-06
4.71e-06
3.285e-06
1.805e-06
7.015e-07
0
)


113
(
0
4.35948e-22
1.25199e-20
1.80755e-19
1.66283e-18
1.22374e-17
8.77537e-17
5.47525e-16
3.14691e-15
1.6325e-14
7.43514e-14
2.93853e-13
9.8349e-13
2.95099e-12
9.44015e-12
2.9764e-11
8.66421e-11
2.31879e-10
5.22346e-10
1.22492e-09
3.02499e-09
6.67087e-09
1.38766e-08
2.72789e-08
5.10041e-08
9.83897e-08
1.81588e-07
3.19619e-07
5.38584e-07
8.72774e-07
1.39716e-06
2.19314e-06
3.36573e-06
4.99624e-06
7.19387e-06
1.016e-05
1.40417e-05
1.90323e-05
2.53229e-05
3.33094e-05
4.30426e-05
5.46665e-05
6.85192e-05
8.45519e-05
0.000103116
0.000124074
0.000147453
0.000173214
0.00020101
0.000230672
0.000262203
0.000294502
0.000327216
0.000359829
0.000391687
0.000421757
0.000449984
0.000476117
0.000497636
0.000516263
0.000531997
0.000542003
0.000549484
0.000552558
0.000551463
0.000548581
0.000540307
0.000531162
0.000518537
0.000504654
0.000488886
0.000471859
0.000453993
0.000435263
0.000416163
0.000396618
0.000376962
0.00035725
0.000337523
0.000317978
0.000298477
0.000279301
0.000260206
0.000241517
0.000222929
0.000204884
0.000186898
0.000169532
0.000152312
0.000135793
0.00011954
0.000111723
0.000103907
9.61873e-05
8.88523e-05
8.15174e-05
7.41825e-05
6.73678e-05
6.05531e-05
5.37385e-05
4.74607e-05
4.1183e-05
3.52484e-05
2.95425e-05
2.40845e-05
1.89981e-05
1.42791e-05
9.91275e-06
5.97804e-06