/*--------------------------------*- C++ -*----------------------------------*\
| =========                 |                                                 |
| \\      /  F ield         | OpenFOAM: The Open Source CFD Toolbox           |
|  \\    /   O peration     | Version:  2.3.0                                 |
|   \\  /    A nd           | Web:      www.OpenFOAM.org                      |
|    \\/     M anipulation  |                                                 |
\*---------------------------------------------------------------------------*/
FoamFile
{
    version     2.0;
    format      ascii;
    class       dictionary;
    location    "constant";
    object      CH2CHO;
}
// * * * * * * * * * * * * * * * * * * * * * * * * * * * * * * * * * * * * * //

CH2CHO_table
13
(

10
(

113
(
0
1.61629e-33
1.92337e-32
1.03323e-31
3.27675e-31
7.54405e-31
1.4171e-30
1.77584e-30
1.61441e-30
1.0157e-30
5.25629e-31
2.21944e-31
6.47e-32
2.88321e-32
6.82199e-33
4.75366e-33
1.4578e-32
4.03134e-32
1.29216e-31
6.51902e-31
1.55926e-30
1.53421e-29
1.52491e-28
6.36689e-28
1.76758e-26
8.30839e-26
2.06228e-24
7.16745e-23
2.38612e-22
1.17578e-20
2.53693e-19
1.35176e-18
4.3682e-17
1.71239e-16
3.18319e-15
4.0307e-14
1.22649e-13
1.1706e-12
4.44215e-12
1.32649e-11
3.5865e-11
6.60298e-11
1.06278e-10
1.38826e-10
1.63976e-10
1.77225e-10
1.87799e-10
1.95061e-10
2.03114e-10
2.12843e-10
2.24535e-10
2.38439e-10
2.58375e-10
2.82333e-10
3.23137e-10
3.71868e-10
4.5946e-10
5.62926e-10
7.5e-10
9.74638e-10
1.37e-09
1.87e-09
2.69561e-09
3.82178e-09
5.46824e-09
7.96361e-09
1.10695e-08
1.63402e-08
2.17891e-08
3.15164e-08
4.12436e-08
5.45828e-08
6.861e-08
8.15189e-08
9.37712e-08
1.01366e-07
1.02259e-07
1.01616e-07
9.34743e-08
8.53327e-08
7.7304e-08
6.92863e-08
6.39363e-08
6.00867e-08
5.71717e-08
5.57816e-08
5.35404e-08
4.64761e-08
3.94119e-08
2.59263e-08
1.22421e-08
8.795e-09
6.42e-09
4.045e-09
1.67e-09
1.01299e-09
6.83213e-10
3.53438e-10
1.06608e-10
7.30633e-11
3.9519e-11
9.59106e-12
6.18322e-12
2.77539e-12
7.05707e-13
3.39133e-13
6.33691e-14
2.1116e-14
3.12354e-15
5.64629e-16
1.72486e-16
1.15429e-17
0
)


113
(
0
2.37766e-28
9.54786e-27
2.28103e-25
2.2255e-24
2.01736e-23
1.09758e-22
9.14133e-22
6.12441e-21
2.10937e-20
1.12769e-19
5.66298e-19
1.30414e-18
6.49518e-18
2.19047e-17
5.20187e-17
1.98095e-16
4.63496e-16
1.16994e-15
3.19782e-15
6.39756e-15
1.6719e-14
3.37763e-14
6.7753e-14
1.39481e-13
2.35236e-13
4.67841e-13
8.17816e-13
1.33669e-12
2.27312e-12
3.50166e-12
5.4364e-12
8.18377e-12
1.1487e-11
1.65708e-11
2.26175e-11
2.99406e-11
3.93742e-11
4.986e-11
6.21837e-11
7.61486e-11
9.1135e-11
1.08206e-10
1.26716e-10
1.46611e-10
1.70653e-10
1.96566e-10
2.31226e-10
2.7231e-10
3.27042e-10
4.01495e-10
4.98187e-10
6.43389e-10
8.20929e-10
1.10176e-09
1.4312e-09
1.95594e-09
2.56046e-09
3.48817e-09
4.56109e-09
6.09605e-09
7.9142e-09
1.02814e-08
1.31555e-08
1.65223e-08
2.06932e-08
2.51457e-08
3.05961e-08
3.60777e-08
4.23046e-08
4.85316e-08
5.45765e-08
6.05868e-08
6.56393e-08
7.01293e-08
7.35935e-08
7.55817e-08
7.70994e-08
7.63202e-08
7.55409e-08
7.27332e-08
6.97248e-08
6.57664e-08
6.12736e-08
5.63936e-08
5.08818e-08
4.52585e-08
3.90037e-08
3.27488e-08
2.64805e-08
2.02117e-08
1.75227e-08
1.49745e-08
1.24262e-08
9.87788e-09
8.1099e-09
6.49055e-09
4.87121e-09
3.47984e-09
2.6747e-09
1.86955e-09
1.12295e-09
8.05653e-10
4.88356e-10
2.62616e-10
1.53404e-10
6.49332e-11
2.97959e-11
1.00998e-11
4.51286e-12
2.18967e-12
6.84098e-13
0
)


113
(
0
2.55012e-16
8.81186e-16
2.27798e-15
4.92849e-15
9.48002e-15
1.70332e-14
3.19228e-14
5.43607e-14
8.4438e-14
1.34561e-13
2.08466e-13
3.01056e-13
4.60572e-13
6.62239e-13
9.24562e-13
1.31619e-12
1.78301e-12
2.45914e-12
3.34125e-12
4.40602e-12
5.89872e-12
7.66712e-12
1.00848e-11
1.32078e-11
1.67579e-11
2.18019e-11
2.78597e-11
3.53763e-11
4.54805e-11
5.72322e-11
7.27482e-11
9.25875e-11
1.15388e-10
1.47874e-10
1.85867e-10
2.31161e-10
2.94355e-10
3.66431e-10
4.53984e-10
5.73318e-10
7.11263e-10
8.80978e-10
1.08699e-09
1.32789e-09
1.63683e-09
1.97144e-09
2.40897e-09
2.89799e-09
3.49646e-09
4.17494e-09
4.94365e-09
5.8654e-09
6.88917e-09
8.07695e-09
9.34192e-09
1.08414e-08
1.24366e-08
1.42475e-08
1.61552e-08
1.82654e-08
2.04997e-08
2.2871e-08
2.53689e-08
2.79353e-08
3.06138e-08
3.32999e-08
3.60136e-08
3.87208e-08
4.12725e-08
4.38242e-08
4.60512e-08
4.82164e-08
5.00026e-08
5.15663e-08
5.27933e-08
5.35357e-08
5.41108e-08
5.38695e-08
5.36281e-08
5.24176e-08
5.11112e-08
4.91778e-08
4.68917e-08
4.42816e-08
4.11428e-08
3.79291e-08
3.42903e-08
3.06516e-08
2.68845e-08
2.31134e-08
2.12839e-08
1.94721e-08
1.76602e-08
1.58484e-08
1.424e-08
1.26703e-08
1.11006e-08
9.61014e-09
8.32324e-09
7.03635e-09
5.78697e-09
4.8127e-09
3.83843e-09
2.97671e-09
2.25826e-09
1.59389e-09
1.06861e-09
6.31496e-10
4.38861e-10
2.8319e-10
1.3937e-10
0
)


113
(
0
2.32505e-13
5.61124e-13
1.05735e-12
1.7601e-12
2.71685e-12
4.01743e-12
5.84972e-12
8.20085e-12
1.10575e-11
1.5074e-11
2.0075e-11
2.58496e-11
3.41285e-11
4.35812e-11
5.47232e-11
6.99143e-11
8.69813e-11
1.08265e-10
1.34109e-10
1.63998e-10
2.02649e-10
2.44715e-10
2.93729e-10
3.56469e-10
4.27225e-10
5.1244e-10
6.05086e-10
7.08425e-10
8.34114e-10
9.73107e-10
1.14113e-09
1.32648e-09
1.52389e-09
1.76869e-09
2.03659e-09
2.33513e-09
2.66796e-09
3.02641e-09
3.43779e-09
3.88399e-09
4.36095e-09
4.94882e-09
5.53543e-09
6.12083e-09
6.85432e-09
7.61817e-09
8.39944e-09
9.23949e-09
1.02044e-08
1.11855e-08
1.21847e-08
1.32547e-08
1.43718e-08
1.55733e-08
1.68144e-08
1.80941e-08
1.93896e-08
2.07387e-08
2.21119e-08
2.34886e-08
2.48675e-08
2.62386e-08
2.76026e-08
2.89465e-08
3.02574e-08
3.15351e-08
3.26949e-08
3.38476e-08
3.48277e-08
3.58078e-08
3.65698e-08
3.72903e-08
3.78087e-08
3.82085e-08
3.84488e-08
3.84596e-08
3.84016e-08
3.80078e-08
3.7614e-08
3.67865e-08
3.59162e-08
3.48135e-08
3.358e-08
3.21504e-08
3.04008e-08
2.8617e-08
2.66392e-08
2.46614e-08
2.2472e-08
2.0276e-08
1.91413e-08
1.7995e-08
1.68487e-08
1.57024e-08
1.45618e-08
1.34223e-08
1.22828e-08
1.11578e-08
1.00698e-08
8.98188e-09
7.90383e-09
6.89839e-09
5.89295e-09
4.93061e-09
4.02315e-09
3.1414e-09
2.32579e-09
1.54878e-09
1.17062e-09
7.97031e-10
4.13827e-10
0
)


113
(
0
1.21992e-11
2.5541e-11
4.15324e-11
6.0666e-11
8.33282e-11
1.10274e-10
1.42838e-10
1.80121e-10
2.2177e-10
2.72074e-10
3.28568e-10
3.89927e-10
4.64241e-10
5.44689e-10
6.33964e-10
7.36932e-10
8.46617e-10
9.72391e-10
1.1096e-09
1.25696e-09
1.42579e-09
1.60377e-09
1.80103e-09
2.01391e-09
2.23613e-09
2.48538e-09
2.75405e-09
3.05065e-09
3.36447e-09
3.69014e-09
4.04426e-09
4.45278e-09
4.89508e-09
5.28842e-09
5.71416e-09
6.18287e-09
6.70293e-09
7.23382e-09
7.76948e-09
8.3222e-09
8.89051e-09
9.5169e-09
1.01733e-08
1.08584e-08
1.14912e-08
1.21296e-08
1.28944e-08
1.36677e-08
1.44591e-08
1.52312e-08
1.59815e-08
1.67272e-08
1.74698e-08
1.82439e-08
1.90328e-08
1.98129e-08
2.05892e-08
2.13385e-08
2.20756e-08
2.27879e-08
2.3485e-08
2.41536e-08
2.47959e-08
2.54011e-08
2.59456e-08
2.64704e-08
2.69253e-08
2.7374e-08
2.76742e-08
2.79744e-08
2.81282e-08
2.82541e-08
2.82938e-08
2.82828e-08
2.8156e-08
2.78628e-08
2.75478e-08
2.71267e-08
2.67056e-08
2.60936e-08
2.54626e-08
2.46978e-08
2.38576e-08
2.29417e-08
2.19022e-08
2.08358e-08
1.96166e-08
1.83973e-08
1.70319e-08
1.56619e-08
1.49339e-08
1.41923e-08
1.34507e-08
1.27091e-08
1.19384e-08
1.1162e-08
1.03857e-08
9.60584e-09
8.81695e-09
8.02806e-09
7.23975e-09
6.45575e-09
5.67175e-09
4.892e-09
4.11766e-09
3.34232e-09
2.56442e-09
1.76716e-09
1.3615e-09
9.32328e-10
4.84034e-10
0
)


113
(
0
8.38575e-11
1.6599e-10
2.51641e-10
3.43087e-10
4.41517e-10
5.48528e-10
6.66376e-10
7.92804e-10
9.26987e-10
1.07541e-09
1.23307e-09
1.39799e-09
1.58037e-09
1.77022e-09
1.97084e-09
2.18661e-09
2.40946e-09
2.6485e-09
2.89803e-09
3.15685e-09
3.43367e-09
3.71769e-09
4.01651e-09
4.32801e-09
4.64703e-09
4.9852e-09
5.33121e-09
5.6885e-09
6.06056e-09
6.44004e-09
6.83351e-09
7.23726e-09
7.64859e-09
8.10931e-09
8.56288e-09
9.00697e-09
9.46227e-09
9.9227e-09
1.03916e-08
1.08673e-08
1.1347e-08
1.18338e-08
1.22759e-08
1.2675e-08
1.34096e-08
1.41613e-08
1.45347e-08
1.49425e-08
1.54235e-08
1.59038e-08
1.63831e-08
1.68214e-08
1.72323e-08
1.76066e-08
1.79636e-08
1.81871e-08
1.8356e-08
1.86416e-08
1.89797e-08
1.92886e-08
1.95796e-08
1.98418e-08
2.00774e-08
2.02886e-08
2.04601e-08
2.06206e-08
2.07421e-08
2.08594e-08
2.08733e-08
2.08872e-08
2.08278e-08
2.07545e-08
2.06217e-08
2.04541e-08
2.02451e-08
1.99767e-08
1.96903e-08
1.93158e-08
1.89413e-08
1.84667e-08
1.79822e-08
1.74267e-08
1.68311e-08
1.61943e-08
1.549e-08
1.47704e-08
1.39637e-08
1.3157e-08
1.22614e-08
1.1363e-08
1.08847e-08
1.03972e-08
9.90964e-09
9.42212e-09
8.90928e-09
8.39162e-09
7.87395e-09
7.34956e-09
6.80785e-09
6.26613e-09
5.72163e-09
5.15663e-09
4.59163e-09
4.01357e-09
3.4189e-09
2.81267e-09
2.17673e-09
1.50702e-09
1.16138e-09
7.91903e-10
4.07815e-10
0
)


113
(
0
2.06328e-10
4.01578e-10
5.921e-10
7.82259e-10
9.74278e-10
1.17006e-09
1.37183e-09
1.57876e-09
1.79043e-09
2.01107e-09
2.23747e-09
2.46841e-09
2.70989e-09
2.95567e-09
3.20764e-09
3.46776e-09
3.73159e-09
4.00354e-09
4.28037e-09
4.56152e-09
4.85037e-09
5.13125e-09
5.38698e-09
5.66884e-09
5.96548e-09
6.26693e-09
6.56999e-09
6.87535e-09
7.183e-09
7.49159e-09
7.80159e-09
8.11199e-09
8.42263e-09
8.73278e-09
9.04217e-09
9.35059e-09
9.65647e-09
9.96074e-09
1.02619e-08
1.05591e-08
1.08538e-08
1.11422e-08
1.14261e-08
1.17057e-08
1.19761e-08
1.22434e-08
1.24989e-08
1.27495e-08
1.29894e-08
1.32208e-08
1.34425e-08
1.36518e-08
1.38527e-08
1.40375e-08
1.42145e-08
1.43724e-08
1.45225e-08
1.46515e-08
1.4771e-08
1.48695e-08
1.49551e-08
1.50213e-08
1.50696e-08
1.51023e-08
1.51098e-08
1.51075e-08
1.50709e-08
1.50324e-08
1.49487e-08
1.48649e-08
1.4739e-08
1.46052e-08
1.44382e-08
1.42518e-08
1.40429e-08
1.38015e-08
1.35575e-08
1.33003e-08
1.30431e-08
1.26871e-08
1.23215e-08
1.19197e-08
1.14977e-08
1.10546e-08
1.0577e-08
1.00913e-08
9.56002e-09
9.02871e-09
8.44767e-09
7.86509e-09
7.55514e-09
7.2393e-09
6.92346e-09
6.60762e-09
6.27128e-09
5.93105e-09
5.59081e-09
5.24327e-09
4.87694e-09
4.51061e-09
4.14068e-09
3.74437e-09
3.34806e-09
2.93632e-09
2.50492e-09
2.06262e-09
1.59227e-09
1.09649e-09
8.40736e-10
5.69979e-10
2.91134e-10
0
)


113
(
0
2.77931e-10
5.40554e-10
7.91168e-10
1.03362e-09
1.26991e-09
1.50114e-09
1.7284e-09
1.95353e-09
2.177e-09
2.39853e-09
2.61932e-09
2.83954e-09
3.05888e-09
3.27797e-09
3.49667e-09
3.71484e-09
3.93274e-09
4.14996e-09
4.36659e-09
4.58269e-09
4.79745e-09
5.01154e-09
5.22419e-09
5.43528e-09
5.64543e-09
5.85267e-09
6.05847e-09
6.26219e-09
6.46264e-09
6.66131e-09
6.8563e-09
7.04808e-09
7.23771e-09
7.42161e-09
7.60276e-09
7.78025e-09
7.95179e-09
8.12022e-09
8.2831e-09
8.44033e-09
8.59397e-09
8.73979e-09
8.88063e-09
9.01666e-09
9.1436e-09
9.26749e-09
9.38075e-09
9.48981e-09
9.58995e-09
9.68341e-09
9.76933e-09
9.84608e-09
9.91671e-09
9.97608e-09
1.00301e-08
1.00715e-08
1.01078e-08
1.01308e-08
1.01478e-08
1.01522e-08
1.01488e-08
1.01341e-08
1.0109e-08
1.00753e-08
1.00274e-08
9.97428e-09
9.90256e-09
9.82984e-09
9.73333e-09
9.63681e-09
9.51875e-09
9.39659e-09
9.25783e-09
9.10931e-09
8.94969e-09
8.77409e-09
8.59375e-09
8.39032e-09
8.18689e-09
7.95748e-09
7.7255e-09
7.47482e-09
7.21362e-09
6.94104e-09
6.6499e-09
6.35411e-09
6.03199e-09
5.70987e-09
5.35616e-09
5.00148e-09
4.81089e-09
4.61612e-09
4.42135e-09
4.22658e-09
4.01586e-09
3.80211e-09
3.58835e-09
3.36874e-09
3.13406e-09
2.89938e-09
2.66195e-09
2.4044e-09
2.14684e-09
1.87874e-09
1.59721e-09
1.30917e-09
1.00437e-09
6.86206e-10
5.23062e-10
3.52811e-10
1.79004e-10
0
)


113
(
0
2.21602e-10
4.33418e-10
6.35944e-10
8.3081e-10
1.01881e-09
1.19997e-09
1.37411e-09
1.54342e-09
1.70859e-09
1.86708e-09
2.02177e-09
2.17348e-09
2.3188e-09
2.46166e-09
2.60097e-09
2.7357e-09
2.86835e-09
2.99644e-09
3.12172e-09
3.24453e-09
3.36272e-09
3.47908e-09
3.59174e-09
3.70124e-09
3.80887e-09
3.9117e-09
4.01254e-09
4.11049e-09
4.20454e-09
4.29659e-09
4.38476e-09
4.4699e-09
4.553e-09
4.63117e-09
4.70716e-09
4.78024e-09
4.84893e-09
4.91543e-09
4.97808e-09
5.03704e-09
5.09369e-09
5.14549e-09
5.19433e-09
5.24033e-09
5.28119e-09
5.32034e-09
5.35373e-09
5.38491e-09
5.41144e-09
5.43459e-09
5.45395e-09
5.46883e-09
5.48073e-09
5.48729e-09
5.49135e-09
5.48957e-09
5.48541e-09
5.4753e-09
5.46251e-09
5.44415e-09
5.42237e-09
5.39572e-09
5.36456e-09
5.32971e-09
5.28882e-09
5.2457e-09
5.19472e-09
5.14331e-09
5.08184e-09
5.02037e-09
4.94975e-09
4.87739e-09
4.79789e-09
4.71419e-09
4.62563e-09
4.53005e-09
4.43234e-09
4.32419e-09
4.21605e-09
4.09572e-09
3.97418e-09
3.84348e-09
3.70762e-09
3.56592e-09
3.41468e-09
3.26096e-09
3.09314e-09
2.92531e-09
2.74013e-09
2.55442e-09
2.45428e-09
2.35184e-09
2.2494e-09
2.14696e-09
2.03606e-09
1.92353e-09
1.81101e-09
1.69558e-09
1.57269e-09
1.44979e-09
1.32566e-09
1.19246e-09
1.05926e-09
9.21799e-10
7.78924e-10
6.33691e-10
4.82395e-10
3.26703e-10
2.47536e-10
1.662e-10
8.3834e-11
0
)


113
(
0
2.41431e-11
4.77183e-11
7.06972e-11
9.31351e-11
1.15048e-10
1.36398e-10
1.57108e-10
1.77344e-10
1.97161e-10
2.16247e-10
2.34882e-10
2.53163e-10
2.7063e-10
2.87763e-10
3.04414e-10
3.20413e-10
3.3611e-10
3.51133e-10
3.6573e-10
3.79949e-10
3.93453e-10
4.06673e-10
4.19314e-10
4.31461e-10
4.43314e-10
4.54421e-10
4.65219e-10
4.75573e-10
4.85332e-10
4.94788e-10
5.03663e-10
5.12093e-10
5.20223e-10
5.27643e-10
5.34754e-10
5.41456e-10
5.47552e-10
5.53349e-10
5.58628e-10
5.6342e-10
5.67908e-10
5.71772e-10
5.75262e-10
5.78394e-10
5.8089e-10
5.83179e-10
5.84771e-10
5.86104e-10
5.86886e-10
5.87279e-10
5.87233e-10
5.8668e-10
5.85788e-10
5.84305e-10
5.82544e-10
5.80147e-10
5.7749e-10
5.74197e-10
5.70617e-10
5.66451e-10
5.61926e-10
5.56897e-10
5.51402e-10
5.45531e-10
5.39046e-10
5.32339e-10
5.24844e-10
5.17308e-10
5.08782e-10
5.00257e-10
4.9085e-10
4.81276e-10
4.71027e-10
4.60384e-10
4.49293e-10
4.37557e-10
4.25632e-10
4.12777e-10
3.99922e-10
3.86024e-10
3.72023e-10
3.57274e-10
3.42105e-10
3.26488e-10
3.10138e-10
2.93611e-10
2.76077e-10
2.58544e-10
2.39875e-10
2.21171e-10
2.11388e-10
2.01468e-10
1.91549e-10
1.8163e-10
1.71261e-10
1.60807e-10
1.50353e-10
1.39761e-10
1.28817e-10
1.17872e-10
1.06876e-10
9.54977e-11
8.41196e-11
7.25806e-11
6.08371e-11
4.90127e-11
3.69801e-11
2.48078e-11
1.86801e-11
1.24871e-11
6.2644e-12
0
)

)


10
(

113
(
0
8.05082e-33
8.46613e-32
4.50883e-31
1.43629e-30
3.50499e-30
6.72919e-30
9.2495e-30
7.89473e-30
3.34843e-30
3.25299e-30
7.34266e-30
1.37602e-29
2.34954e-29
4.0566e-29
7.48228e-29
1.5956e-28
3.76507e-28
9.93694e-28
2.99313e-27
1.05267e-26
4.23105e-26
1.60953e-25
1.1794e-24
1.02984e-23
1.00362e-22
1.04043e-21
1.10968e-20
1.18465e-19
1.23149e-18
1.21187e-17
1.1013e-16
9.11502e-16
6.78969e-15
4.6462e-14
3.26685e-13
1.99924e-12
9.85981e-12
3.84763e-11
1.17492e-10
2.80456e-10
5.2685e-10
7.88371e-10
9.89619e-10
1.11367e-09
1.20314e-09
1.32563e-09
1.55021e-09
1.96796e-09
2.69207e-09
3.86122e-09
5.68905e-09
8.44281e-09
1.24276e-08
1.79497e-08
2.60929e-08
3.69159e-08
5.02195e-08
6.57876e-08
8.36671e-08
1.01539e-07
1.18071e-07
1.31938e-07
1.39079e-07
1.41858e-07
1.3907e-07
1.303e-07
1.19544e-07
1.06315e-07
9.32583e-08
8.03014e-08
6.96637e-08
5.98733e-08
5.2329e-08
4.61699e-08
4.1374e-08
3.82092e-08
3.56756e-08
3.47934e-08
3.41587e-08
3.45235e-08
3.46581e-08
3.40267e-08
3.19871e-08
2.77076e-08
2.22554e-08
1.58591e-08
1.06992e-08
5.95143e-09
3.61036e-09
1.71765e-09
1.28339e-09
8.49126e-10
5.20448e-10
3.82775e-10
2.45102e-10
1.39066e-10
9.84414e-11
5.78165e-11
3.27645e-11
2.09785e-11
9.51221e-12
6.14135e-12
2.77049e-12
1.45971e-12
5.12247e-13
2.41858e-13
7.12114e-14
1.4357e-14
3.89244e-15
1.03516e-15
8.20436e-17
0
)


113
(
0
2.27044e-27
7.0469e-26
1.69526e-24
1.79051e-23
1.3107e-22
1.00839e-21
6.74049e-21
3.78951e-20
1.93229e-19
9.27337e-19
3.81869e-18
1.45569e-17
4.99155e-17
1.50716e-16
4.37795e-16
1.34475e-15
3.78349e-15
9.87331e-15
2.40643e-14
5.50497e-14
1.1874e-13
2.43283e-13
5.13042e-13
1.02483e-12
1.9451e-12
3.53384e-12
6.18917e-12
1.05261e-11
1.73483e-11
2.76312e-11
4.27045e-11
6.42632e-11
9.46392e-11
1.36738e-10
1.94596e-10
2.72116e-10
3.75342e-10
5.15214e-10
7.00205e-10
9.48318e-10
1.286e-09
1.74121e-09
2.3548e-09
3.17457e-09
4.25845e-09
5.67567e-09
7.5006e-09
9.85165e-09
1.28263e-08
1.647e-08
2.08386e-08
2.59481e-08
3.17875e-08
3.83203e-08
4.56001e-08
5.33003e-08
6.11972e-08
6.91321e-08
7.6745e-08
8.36264e-08
8.97346e-08
9.47872e-08
9.79748e-08
9.99781e-08
1.00479e-07
9.89262e-08
9.64454e-08
9.24106e-08
8.746e-08
8.19785e-08
7.58883e-08
6.98144e-08
6.38559e-08
5.82664e-08
5.30401e-08
4.85214e-08
4.42764e-08
4.08245e-08
3.74896e-08
3.46145e-08
3.1749e-08
2.89161e-08
2.59994e-08
2.29495e-08
1.98102e-08
1.65991e-08
1.34941e-08
1.04245e-08
7.87124e-09
5.53552e-09
4.62326e-09
3.71101e-09
2.92325e-09
2.36071e-09
1.79816e-09
1.32027e-09
1.01738e-09
7.14487e-10
4.96939e-10
3.52088e-10
2.10319e-10
1.46534e-10
8.27493e-11
5.07959e-11
2.44956e-11
1.35288e-11
5.81739e-12
2.08186e-12
1.03884e-12
4.99069e-13
1.67186e-13
0
)


113
(
0
2.50228e-15
8.85962e-15
2.36624e-14
5.22099e-14
1.04531e-13
1.97668e-13
3.55491e-13
6.22424e-13
1.04671e-12
1.70942e-12
2.70763e-12
4.19222e-12
6.36637e-12
9.46705e-12
1.39217e-11
2.02692e-11
2.93334e-11
4.16475e-11
5.81428e-11
8.01174e-11
1.09088e-10
1.46686e-10
1.98279e-10
2.64843e-10
3.4934e-10
4.57927e-10
5.91799e-10
7.59546e-10
9.70815e-10
1.22556e-09
1.53809e-09
1.92105e-09
2.37048e-09
2.91667e-09
3.55416e-09
4.31321e-09
5.19832e-09
6.20682e-09
7.38221e-09
8.69705e-09
1.02012e-08
1.18803e-08
1.37437e-08
1.57734e-08
1.80326e-08
2.04362e-08
2.30126e-08
2.57778e-08
2.86895e-08
3.1735e-08
3.48507e-08
3.80336e-08
4.12644e-08
4.44906e-08
4.76695e-08
5.07423e-08
5.36863e-08
5.64816e-08
5.90176e-08
6.1281e-08
6.32933e-08
6.4986e-08
6.62176e-08
6.71537e-08
6.77139e-08
6.77484e-08
6.75166e-08
6.68055e-08
6.57073e-08
6.43847e-08
6.25191e-08
6.05116e-08
5.81451e-08
5.5602e-08
5.28853e-08
4.99644e-08
4.69646e-08
4.38047e-08
4.06266e-08
3.74221e-08
3.42358e-08
3.11097e-08
2.8028e-08
2.50172e-08
2.21188e-08
1.93111e-08
1.67125e-08
1.41835e-08
1.19437e-08
9.81047e-09
8.86854e-09
7.92661e-09
7.04194e-09
6.26084e-09
5.47975e-09
4.7512e-09
4.13125e-09
3.51131e-09
2.96251e-09
2.47431e-09
1.99086e-09
1.62784e-09
1.26482e-09
9.80621e-10
7.10659e-10
5.08928e-10
3.32598e-10
1.92469e-10
1.33605e-10
8.51458e-11
4.17337e-11
0
)


113
(
0
3.54099e-12
8.39437e-12
1.55352e-11
2.53225e-11
3.84573e-11
5.57952e-11
7.83076e-11
1.07076e-10
1.43281e-10
1.88208e-10
2.43254e-10
3.10244e-10
3.90963e-10
4.86861e-10
6.02454e-10
7.36615e-10
8.95396e-10
1.07972e-09
1.28943e-09
1.53028e-09
1.81013e-09
2.11133e-09
2.47266e-09
2.87269e-09
3.31969e-09
3.81754e-09
4.36822e-09
4.97287e-09
5.6339e-09
6.35917e-09
7.15818e-09
8.01644e-09
8.91465e-09
9.8925e-09
1.09982e-08
1.20993e-08
1.32676e-08
1.45353e-08
1.58698e-08
1.72353e-08
1.86836e-08
2.01669e-08
2.17132e-08
2.32935e-08
2.48666e-08
2.65001e-08
2.81824e-08
2.98341e-08
3.14922e-08
3.31544e-08
3.47611e-08
3.63366e-08
3.78909e-08
3.93928e-08
4.08154e-08
4.21434e-08
4.33856e-08
4.45469e-08
4.56049e-08
4.65038e-08
4.72886e-08
4.79519e-08
4.84275e-08
4.87793e-08
4.89724e-08
4.89631e-08
4.88455e-08
4.85263e-08
4.80397e-08
4.74559e-08
4.66306e-08
4.57263e-08
4.46157e-08
4.33676e-08
4.19842e-08
4.04671e-08
3.88983e-08
3.71312e-08
3.53318e-08
3.33808e-08
3.14159e-08
2.94049e-08
2.73617e-08
2.52669e-08
2.31587e-08
2.10398e-08
1.89673e-08
1.69102e-08
1.49606e-08
1.30491e-08
1.21378e-08
1.12265e-08
1.03418e-08
9.50544e-09
8.66904e-09
7.8591e-09
7.10386e-09
6.34863e-09
5.63776e-09
4.9647e-09
4.29463e-09
3.70063e-09
3.10663e-09
2.57467e-09
2.05398e-09
1.59574e-09
1.16244e-09
7.63283e-10
5.73281e-10
3.88174e-10
2.00388e-10
0
)


113
(
0
6.7974e-11
1.39265e-10
2.21793e-10
3.17312e-10
4.27884e-10
5.5523e-10
7.00695e-10
8.65389e-10
1.05028e-09
1.25629e-09
1.48429e-09
1.73516e-09
2.00979e-09
2.30903e-09
2.63569e-09
2.99243e-09
3.37679e-09
3.78941e-09
4.23095e-09
4.70204e-09
5.20319e-09
5.73495e-09
6.30233e-09
6.91859e-09
7.55994e-09
8.2269e-09
8.93266e-09
9.66579e-09
1.04235e-08
1.1218e-08
1.19876e-08
1.28388e-08
1.36827e-08
1.4543e-08
1.54656e-08
1.63793e-08
1.72744e-08
1.82967e-08
1.91887e-08
2.01535e-08
2.11103e-08
2.21021e-08
2.30747e-08
2.40277e-08
2.49789e-08
2.59329e-08
2.68712e-08
2.77452e-08
2.86107e-08
2.94731e-08
3.02961e-08
3.10679e-08
3.18027e-08
3.25214e-08
3.31456e-08
3.37605e-08
3.43176e-08
3.4803e-08
3.52227e-08
3.5565e-08
3.58476e-08
3.60626e-08
3.61911e-08
3.6273e-08
3.62987e-08
3.61897e-08
3.60271e-08
3.57837e-08
3.54555e-08
3.50782e-08
3.45274e-08
3.39393e-08
3.32603e-08
3.25004e-08
3.16611e-08
3.07398e-08
2.97869e-08
2.87433e-08
2.76824e-08
2.65202e-08
2.53361e-08
2.40793e-08
2.27929e-08
2.14594e-08
2.00945e-08
1.87041e-08
1.72871e-08
1.58611e-08
1.44209e-08
1.29825e-08
1.22655e-08
1.15486e-08
1.08362e-08
1.01321e-08
9.42805e-09
8.73096e-09
8.04831e-09
7.36566e-09
6.69817e-09
6.0436e-09
5.39022e-09
4.7669e-09
4.14359e-09
3.54499e-09
2.95084e-09
2.37675e-09
1.80578e-09
1.23428e-09
9.4511e-10
6.45597e-10
3.33579e-10
0
)


113
(
0
2.42321e-10
4.73044e-10
7.07829e-10
9.52894e-10
1.21202e-09
1.48762e-09
1.78097e-09
2.09258e-09
2.42246e-09
2.77038e-09
3.13604e-09
3.51904e-09
3.91905e-09
4.33567e-09
4.76968e-09
5.22147e-09
5.68856e-09
6.17047e-09
6.66673e-09
7.17684e-09
7.70027e-09
8.23647e-09
8.78647e-09
9.34748e-09
9.91874e-09
1.04995e-08
1.10888e-08
1.16859e-08
1.22897e-08
1.28992e-08
1.35133e-08
1.4131e-08
1.47548e-08
1.54506e-08
1.60736e-08
1.6695e-08
1.73136e-08
1.7928e-08
1.85369e-08
1.9139e-08
1.97327e-08
2.03168e-08
2.09356e-08
2.18061e-08
2.23438e-08
2.28407e-08
2.34145e-08
2.39583e-08
2.44299e-08
2.48559e-08
2.52547e-08
2.56061e-08
2.59095e-08
2.61912e-08
2.64177e-08
2.6558e-08
2.65521e-08
2.64452e-08
2.65823e-08
2.66799e-08
2.67454e-08
2.67735e-08
2.67492e-08
2.66935e-08
2.65988e-08
2.6437e-08
2.62466e-08
2.60103e-08
2.57296e-08
2.54231e-08
2.50468e-08
2.46491e-08
2.41962e-08
2.37056e-08
2.3178e-08
2.25967e-08
2.19946e-08
2.13262e-08
2.06458e-08
1.99006e-08
1.914e-08
1.83287e-08
1.74941e-08
1.66225e-08
1.57214e-08
1.47966e-08
1.38385e-08
1.28692e-08
1.18657e-08
1.08548e-08
1.03408e-08
9.82687e-09
9.31043e-09
8.7895e-09
8.26857e-09
7.74665e-09
7.22271e-09
6.69877e-09
6.17417e-09
5.64901e-09
5.12374e-09
4.59592e-09
4.06811e-09
3.53376e-09
2.99815e-09
2.44724e-09
1.88408e-09
1.29869e-09
9.96042e-10
6.78553e-10
3.48286e-10
0
)


113
(
0
4.04221e-10
7.80219e-10
1.14148e-09
1.49699e-09
1.85132e-09
2.20765e-09
2.56816e-09
2.93414e-09
3.30627e-09
3.68481e-09
4.06978e-09
4.46102e-09
4.85829e-09
5.26127e-09
5.66994e-09
6.08403e-09
6.50241e-09
6.9246e-09
7.35014e-09
7.77854e-09
8.20933e-09
8.64201e-09
9.03811e-09
9.45959e-09
9.88418e-09
1.03071e-08
1.07278e-08
1.11456e-08
1.15599e-08
1.197e-08
1.23752e-08
1.2775e-08
1.31686e-08
1.35554e-08
1.39346e-08
1.43055e-08
1.46677e-08
1.50206e-08
1.53634e-08
1.56955e-08
1.60161e-08
1.63244e-08
1.66202e-08
1.69028e-08
1.71717e-08
1.74263e-08
1.76661e-08
1.78894e-08
1.80958e-08
1.82855e-08
1.84579e-08
1.86129e-08
1.87502e-08
1.887e-08
1.89664e-08
1.90428e-08
1.91005e-08
1.914e-08
1.91543e-08
1.91457e-08
1.91188e-08
1.90706e-08
1.89927e-08
1.88974e-08
1.87801e-08
1.86318e-08
1.84678e-08
1.82752e-08
1.80574e-08
1.7825e-08
1.7553e-08
1.72687e-08
1.6953e-08
1.66157e-08
1.62571e-08
1.58673e-08
1.54655e-08
1.50548e-08
1.46367e-08
1.41399e-08
1.36342e-08
1.30988e-08
1.25493e-08
1.19772e-08
1.13861e-08
1.07798e-08
1.01498e-08
9.51189e-09
8.84557e-09
8.17122e-09
7.82469e-09
7.47817e-09
7.1271e-09
6.76781e-09
6.40853e-09
6.04491e-09
5.67235e-09
5.29978e-09
4.9191e-09
4.5315e-09
4.14322e-09
3.73762e-09
3.33202e-09
2.90794e-09
2.48045e-09
2.02808e-09
1.56184e-09
1.07307e-09
8.19949e-10
5.55793e-10
2.83278e-10
0
)


113
(
0
4.30134e-10
8.32728e-10
1.21355e-09
1.57914e-09
1.93231e-09
2.27533e-09
2.61019e-09
2.93843e-09
3.26126e-09
3.57954e-09
3.89388e-09
4.20472e-09
4.51237e-09
4.817e-09
5.11851e-09
5.41677e-09
5.71208e-09
6.00436e-09
6.29349e-09
6.57931e-09
6.86164e-09
7.14027e-09
7.41434e-09
7.68422e-09
7.94969e-09
8.21047e-09
8.46632e-09
8.71697e-09
8.96214e-09
9.20157e-09
9.43498e-09
9.6621e-09
9.88266e-09
1.00964e-08
1.03028e-08
1.05019e-08
1.06935e-08
1.08773e-08
1.1053e-08
1.12205e-08
1.13793e-08
1.15292e-08
1.16702e-08
1.1802e-08
1.19245e-08
1.20375e-08
1.21408e-08
1.22336e-08
1.23158e-08
1.23877e-08
1.24492e-08
1.25001e-08
1.25406e-08
1.25708e-08
1.25875e-08
1.25929e-08
1.25876e-08
1.25722e-08
1.25428e-08
1.25009e-08
1.2449e-08
1.23856e-08
1.23063e-08
1.22176e-08
1.21173e-08
1.20007e-08
1.18758e-08
1.1736e-08
1.1583e-08
1.14225e-08
1.12414e-08
1.10541e-08
1.08504e-08
1.06356e-08
1.04097e-08
1.01676e-08
9.9193e-09
9.65031e-09
9.37752e-09
9.08367e-09
8.78454e-09
8.46786e-09
8.14234e-09
7.80279e-09
7.45049e-09
7.08794e-09
6.70788e-09
6.32198e-09
5.91223e-09
5.49482e-09
5.27718e-09
5.05954e-09
4.83706e-09
4.60582e-09
4.37459e-09
4.13852e-09
3.89247e-09
3.64642e-09
3.3916e-09
3.12932e-09
2.86638e-09
2.58652e-09
2.30667e-09
2.01107e-09
1.71258e-09
1.39573e-09
1.06992e-09
7.30208e-10
5.55333e-10
3.74638e-10
1.89834e-10
0
)


113
(
0
2.9203e-10
5.69974e-10
8.34697e-10
1.08862e-09
1.33241e-09
1.56665e-09
1.79208e-09
2.00939e-09
2.21922e-09
2.42213e-09
2.61859e-09
2.809e-09
2.99368e-09
3.1729e-09
3.34653e-09
3.51454e-09
3.67773e-09
3.83624e-09
3.99017e-09
4.13962e-09
4.28465e-09
4.42531e-09
4.561e-09
4.69248e-09
4.81975e-09
4.94284e-09
5.06175e-09
5.17647e-09
5.28701e-09
5.39334e-09
5.49547e-09
5.59337e-09
5.68702e-09
5.77639e-09
5.86137e-09
5.94203e-09
6.01839e-09
6.09042e-09
6.15808e-09
6.22136e-09
6.28009e-09
6.3343e-09
6.38402e-09
6.42924e-09
6.46993e-09
6.50608e-09
6.53768e-09
6.56435e-09
6.58615e-09
6.60328e-09
6.61568e-09
6.6234e-09
6.62651e-09
6.62508e-09
6.6178e-09
6.60558e-09
6.58883e-09
6.56771e-09
6.54063e-09
6.50823e-09
6.47161e-09
6.43009e-09
6.38187e-09
6.32969e-09
6.27261e-09
6.20857e-09
6.14101e-09
6.06708e-09
5.98748e-09
5.90459e-09
5.81271e-09
5.71802e-09
5.61605e-09
5.50894e-09
5.39679e-09
5.27695e-09
5.15414e-09
5.02118e-09
4.8863e-09
4.7406e-09
4.59204e-09
4.434e-09
4.27093e-09
4.09988e-09
3.92122e-09
3.73642e-09
3.54073e-09
3.3414e-09
3.12683e-09
2.90736e-09
2.7919e-09
2.67644e-09
2.55795e-09
2.43399e-09
2.31003e-09
2.1832e-09
2.05044e-09
1.91768e-09
1.78009e-09
1.63838e-09
1.49635e-09
1.34581e-09
1.19528e-09
1.03757e-09
8.78563e-10
7.11979e-10
5.42014e-10
3.66959e-10
2.77682e-10
1.8649e-10
9.40092e-11
0
)


113
(
0
2.84778e-11
5.62687e-11
8.33454e-11
1.09784e-10
1.35573e-10
1.60701e-10
1.8517e-10
2.08987e-10
2.32165e-10
2.54714e-10
2.76648e-10
2.97975e-10
3.18704e-10
3.38842e-10
3.58353e-10
3.77208e-10
3.95488e-10
4.13195e-10
4.30334e-10
4.46908e-10
4.62917e-10
4.78362e-10
4.93161e-10
5.07409e-10
5.21107e-10
5.34255e-10
5.46856e-10
5.58911e-10
5.7042e-10
5.81385e-10
5.91808e-10
6.0169e-10
6.11031e-10
6.19833e-10
6.28086e-10
6.35805e-10
6.42994e-10
6.49657e-10
6.55793e-10
6.61405e-10
6.66478e-10
6.7102e-10
6.75041e-10
6.78542e-10
6.81525e-10
6.83993e-10
6.85947e-10
6.87352e-10
6.88216e-10
6.88565e-10
6.88397e-10
6.87721e-10
6.86545e-10
6.84882e-10
6.82591e-10
6.79776e-10
6.76481e-10
6.72725e-10
6.68343e-10
6.63405e-10
6.58026e-10
6.52139e-10
6.45558e-10
6.3857e-10
6.31076e-10
6.22871e-10
6.14306e-10
6.05093e-10
5.95308e-10
5.8519e-10
5.7417e-10
5.62871e-10
5.50849e-10
5.38324e-10
5.25304e-10
5.11542e-10
4.97494e-10
4.82486e-10
4.673e-10
4.51116e-10
4.34679e-10
4.17396e-10
3.99685e-10
3.81291e-10
3.62278e-10
3.42767e-10
3.22421e-10
3.01798e-10
2.80086e-10
2.5805e-10
2.46655e-10
2.35259e-10
2.2368e-10
2.1177e-10
1.9986e-10
1.87792e-10
1.75397e-10
1.63002e-10
1.50365e-10
1.37521e-10
1.24663e-10
1.11417e-10
9.81703e-11
8.46251e-11
7.10256e-11
5.71348e-11
4.31228e-11
2.89321e-11
2.17776e-11
1.45611e-11
7.30397e-12
0
)

)


10
(

113
(
0
3.24321e-30
6.20769e-29
4.645e-28
2.21408e-27
8.67043e-27
2.8006e-26
6.86491e-26
1.24043e-25
1.81339e-25
2.49158e-25
3.51833e-25
5.335e-25
8.74154e-25
1.59569e-24
3.6e-24
9.365e-24
2.58923e-23
6.635e-23
2.0785e-22
8.09077e-22
3.415e-21
1.514e-20
6.16077e-20
2.00146e-19
1.1335e-18
6.49167e-18
3.60583e-17
1.8505e-16
7.89417e-16
3.45358e-15
2.154e-14
1.17833e-13
5.64e-13
2.45709e-12
1.00418e-11
3.57727e-11
1.11455e-10
3.07e-10
7.99727e-10
1.72527e-09
3.2e-09
4.93091e-09
7.021e-09
9.60545e-09
1.32091e-08
1.86182e-08
2.62667e-08
3.62333e-08
4.94e-08
6.54e-08
8.53083e-08
1.076e-07
1.30286e-07
1.51714e-07
1.70286e-07
1.85e-07
1.95e-07
1.95667e-07
1.91938e-07
1.83813e-07
1.70063e-07
1.5475e-07
1.3725e-07
1.20471e-07
1.04e-07
9.08889e-08
7.83444e-08
6.80667e-08
5.89667e-08
5.16333e-08
4.60158e-08
4.15421e-08
3.85053e-08
3.60842e-08
3.512e-08
3.452e-08
3.492e-08
3.557e-08
3.598e-08
3.633e-08
3.448e-08
3.208e-08
2.70947e-08
2.14632e-08
1.622e-08
1.102e-08
7.315e-09
3.97444e-09
2.41889e-09
1.16112e-09
8.79647e-10
5.98176e-10
3.55844e-10
2.70063e-10
1.84281e-10
9.85e-11
7.41333e-11
4.97667e-11
2.54e-11
1.74917e-11
9.58333e-12
5.1e-12
2.9e-12
1.31178e-12
6.41222e-13
2.48629e-13
7.18e-14
1.68e-14
8.25625e-15
1.8445e-15
2.17e-16
0
)


113
(
0
4.37625e-26
1.30022e-24
1.90914e-23
1.7817e-22
1.31921e-21
9.67855e-21
6.19356e-20
3.60131e-19
1.87994e-18
8.75302e-18
3.53375e-17
1.19677e-16
3.62655e-16
1.17498e-15
3.76936e-15
1.1149e-14
3.03016e-14
6.9001e-14
1.63744e-13
4.11064e-13
9.19496e-13
1.9428e-12
3.87697e-12
7.34206e-12
1.4429e-11
2.71204e-11
4.86958e-11
8.37469e-11
1.38441e-10
2.26677e-10
3.65511e-10
5.78515e-10
8.86988e-10
1.31915e-09
1.92807e-09
2.76223e-09
3.88853e-09
5.38007e-09
7.38522e-09
9.9516e-09
1.31743e-08
1.72047e-08
2.20632e-08
2.79217e-08
3.47521e-08
4.25705e-08
5.13531e-08
6.0938e-08
7.12137e-08
8.20346e-08
9.28945e-08
1.03516e-07
1.13639e-07
1.22791e-07
1.30384e-07
1.3657e-07
1.41228e-07
1.42927e-07
1.43012e-07
1.41483e-07
1.37251e-07
1.32019e-07
1.25154e-07
1.17246e-07
1.0889e-07
1.00005e-07
9.12068e-08
8.27551e-08
7.47563e-08
6.74367e-08
6.10199e-08
5.5205e-08
5.04673e-08
4.61912e-08
4.29133e-08
3.98851e-08
3.74337e-08
3.51266e-08
3.29061e-08
3.07072e-08
2.82471e-08
2.57218e-08
2.28765e-08
1.99512e-08
1.68998e-08
1.38345e-08
1.10235e-08
8.30347e-09
6.14798e-09
4.21227e-09
3.50082e-09
2.78937e-09
2.13956e-09
1.73632e-09
1.33307e-09
9.29828e-10
7.31996e-10
5.34163e-10
3.36331e-10
2.47945e-10
1.59559e-10
1.01549e-10
6.37885e-11
3.50153e-11
1.97227e-11