/*--------------------------------*- C++ -*----------------------------------*\
| =========                 |                                                 |
| \\      /  F ield         | OpenFOAM: The Open Source CFD Toolbox           |
|  \\    /   O peration     | Version:  2.3.0                                 |
|   \\  /    A nd           | Web:      www.OpenFOAM.org                      |
|    \\/     M anipulation  |                                                 |
\*---------------------------------------------------------------------------*/
FoamFile
{
    version     2.0;
    format      ascii;
    class       dictionary;
    location    "constant";
    object      C2H3;
}
// * * * * * * * * * * * * * * * * * * * * * * * * * * * * * * * * * * * * * //

C2H3_table
13
(

10
(

113
(
0
1.59492e-35
1.91759e-34
1.01009e-33
3.14825e-33
7.31548e-33
1.44187e-32
2.45547e-32
3.46207e-32
4.35258e-32
4.24662e-32
3.59333e-32
2.51e-32
1.43767e-32
6.04584e-33
1.15764e-33
3.45853e-33
1.20471e-32
4.25593e-32
3.07951e-31
7.81632e-31
1.30509e-29
2.02356e-28
8.918e-28
3.43884e-26
1.88837e-25
5.36567e-24
2.5253e-22
8.47922e-22
5.83421e-20
1.75366e-18
9.55678e-18
4.41288e-16
2.02019e-15
4.65296e-14
8.30687e-13
2.59531e-12
3.56442e-11
1.84309e-10
6.30638e-10
2.6988e-09
6.25118e-09
1.53443e-08
2.77401e-08
4.3309e-08
6.09977e-08
7.92447e-08
9.87419e-08
1.18746e-07
1.39827e-07
1.61556e-07
1.84016e-07
2.07375e-07
2.31333e-07
2.56604e-07
2.82492e-07
3.12144e-07
3.43332e-07
3.81667e-07
4.23213e-07
4.7561e-07
5.34657e-07
6.05523e-07
6.87299e-07
7.77759e-07
8.82389e-07
9.87817e-07
1.09607e-06
1.20273e-06
1.27091e-06
1.33909e-06
1.30819e-06
1.25842e-06
1.12535e-06
9.43369e-07
7.52902e-07
5.50223e-07
3.62442e-07
2.47398e-07
1.32354e-07
8.54396e-08
4.52634e-08
2.40545e-08
1.35147e-08
6.04278e-09
3.57641e-09
1.39812e-09
8.52248e-10
3.06376e-10
1.74111e-10
5.46368e-11
3.31905e-11
2.38359e-11
1.44813e-11
5.12673e-12
2.83507e-12
1.88872e-12
9.42371e-13
2.39522e-13
1.62813e-13
8.61038e-14
1.78348e-14
1.14579e-14
5.08104e-15
1.23296e-15
6.03333e-16
1.27116e-16
4.53877e-17
8.47196e-18
2.00246e-18
6.58171e-19
6.01857e-20
0
)


113
(
0
1.2224e-26
4.67569e-25
1.19324e-23
1.25716e-22
1.18759e-21
6.515e-21
5.38249e-20
4.06242e-19
1.46426e-18
8.21858e-18
4.24443e-17
9.82547e-17
5.11772e-16
1.87933e-15
4.61977e-15
1.80461e-14
4.4192e-14
1.19396e-13
3.44288e-13
7.01922e-13
2.02932e-12
4.33286e-12
9.10797e-12
1.99e-11
3.45691e-11
7.33801e-11
1.36048e-10
2.33048e-10
4.26353e-10
6.92037e-10
1.13944e-09
1.8419e-09
2.7206e-09
4.24463e-09
6.19105e-09
8.69737e-09
1.2352e-08
1.66758e-08
2.22608e-08
2.92643e-08
3.71844e-08
4.71533e-08
5.84304e-08
7.09645e-08
8.58017e-08
1.01395e-07
1.19555e-07
1.38716e-07
1.60002e-07
1.82981e-07
2.07868e-07
2.35398e-07
2.64689e-07
2.97819e-07
3.32756e-07
3.726e-07
4.14448e-07
4.61538e-07
5.10983e-07
5.64401e-07
6.20255e-07
6.76973e-07
7.3449e-07
7.89348e-07
8.39868e-07
8.86135e-07
9.17322e-07
9.47265e-07
9.47337e-07
9.47409e-07
9.16141e-07
8.78904e-07
8.21228e-07
7.51548e-07
6.74653e-07
5.87373e-07
5.00513e-07
4.15701e-07
3.30889e-07
2.6302e-07
1.96828e-07
1.46084e-07
1.0403e-07
6.96439e-08
4.77674e-08
2.77886e-08
1.85633e-08
9.33797e-09
5.96165e-09
2.76623e-09
2.02455e-09
1.5532e-09
1.08185e-09
6.10505e-10
4.34382e-10
3.14493e-10
1.94603e-10
1.00466e-10
7.25495e-11
4.4633e-11
1.93274e-11
1.31676e-11
7.00786e-12
2.96429e-12
1.61407e-12
5.52651e-13
2.33846e-13
6.86712e-14
2.79079e-14
1.30472e-14
3.81854e-15
0
)


113
(
0
6.7418e-14
2.37586e-13
6.27062e-13
1.38317e-12
2.71616e-12
5.01325e-12
9.29848e-12
1.60951e-11
2.54859e-11
4.15559e-11
6.57575e-11
9.6348e-11
1.498e-10
2.18114e-10
3.07817e-10
4.46128e-10
6.11287e-10
8.48194e-10
1.15637e-09
1.52775e-09
2.05459e-09
2.66523e-09
3.46523e-09
4.48282e-09
5.63109e-09
7.18528e-09
8.95646e-09
1.10399e-08
1.36646e-08
1.65933e-08
2.01568e-08
2.42963e-08
2.88277e-08
3.45161e-08
4.07313e-08
4.76447e-08
5.58896e-08
6.47823e-08
7.47911e-08
8.60839e-08
9.81953e-08
1.12079e-07
1.26952e-07
1.42774e-07
1.60879e-07
1.79629e-07
2.00079e-07
2.21388e-07
2.4452e-07
2.68592e-07
2.93724e-07
3.19865e-07
3.46679e-07
3.7424e-07
4.02151e-07
4.29877e-07
4.57527e-07
4.84146e-07
5.10302e-07
5.34342e-07
5.57086e-07
5.77201e-07
5.94889e-07
6.09868e-07
6.20427e-07
6.29078e-07
6.30967e-07
6.32469e-07
6.24723e-07
6.16976e-07
6.01224e-07
5.83947e-07
5.61218e-07
5.35287e-07
5.06554e-07
4.73789e-07
4.40422e-07
4.04116e-07
3.67809e-07
3.31075e-07
2.94299e-07
2.58985e-07
2.24492e-07
1.9201e-07
1.62806e-07
1.34382e-07
1.10377e-07
8.63718e-08
6.91998e-08
5.22391e-08
4.57464e-08
3.98812e-08
3.40161e-08
2.8151e-08
2.41027e-08
2.04006e-08
1.66984e-08
1.33887e-08
1.10885e-08
8.78835e-09
6.6026e-09
5.25606e-09
3.90951e-09
2.80602e-09
2.01188e-09
1.30495e-09
8.22273e-10
4.52176e-10
2.99655e-10
1.87727e-10
8.89123e-11
0
)


113
(
0
4.49607e-11
1.0499e-10
1.90912e-10
3.06913e-10
4.57933e-10
6.53878e-10
9.1418e-10
1.23295e-09
1.60726e-09
2.10003e-09
2.68454e-09
3.34115e-09
4.2145e-09
5.18814e-09
6.30607e-09
7.67358e-09
9.16883e-09
1.09831e-08
1.30042e-08
1.52088e-08
1.79107e-08
2.07863e-08
2.39993e-08
2.76916e-08
3.16664e-08
3.62707e-08
4.11815e-08
4.65333e-08
5.25162e-08
5.88616e-08
6.59768e-08
7.35468e-08
8.14283e-08
9.03286e-08
9.95364e-08
1.09152e-07
1.19777e-07
1.30817e-07
1.42499e-07
1.54538e-07
1.66855e-07
1.80038e-07
1.93577e-07
2.07457e-07
2.21498e-07
2.35681e-07
2.50762e-07
2.65844e-07
2.80929e-07
2.95887e-07
3.10701e-07
3.25191e-07
3.39464e-07
3.53081e-07
3.66388e-07
3.78635e-07
3.90447e-07
4.01085e-07
4.11194e-07
4.19743e-07
4.27336e-07
4.33497e-07
4.38336e-07
4.41936e-07
4.43516e-07
4.44332e-07
4.42441e-07
4.40407e-07
4.3492e-07
4.29433e-07
4.20774e-07
4.1151e-07
4.00317e-07
3.87992e-07
3.74488e-07
3.59289e-07
3.43684e-07
3.26105e-07
3.08525e-07
2.89118e-07
2.69529e-07
2.50244e-07
2.31129e-07
2.11837e-07
1.92256e-07
1.72752e-07
1.53685e-07
1.34618e-07
1.17598e-07
1.00641e-07
9.2952e-08
8.5512e-08
7.80721e-08
7.06322e-08
6.41253e-08
5.77961e-08
5.1467e-08
4.54378e-08
4.01799e-08
3.4922e-08
2.97791e-08
2.54792e-08
2.11793e-08
1.72318e-08
1.37328e-08
1.0404e-08
7.51293e-09
4.8706e-09
3.61937e-09
2.43571e-09
1.24672e-09
0
)


113
(
0
6.47445e-10
1.32432e-09
2.10174e-09
2.99896e-09
4.02721e-09
5.20901e-09
6.58159e-09
8.10662e-09
9.77025e-09
1.16946e-08
1.37942e-08
1.60314e-08
1.86125e-08
2.13462e-08
2.42995e-08
2.75711e-08
3.09938e-08
3.47657e-08
3.87688e-08
4.29769e-08
4.7588e-08
5.23617e-08
5.74706e-08
6.28324e-08
6.83529e-08
7.4686e-08
8.10158e-08
8.73411e-08
9.42815e-08
1.01431e-07
1.08787e-07
1.16177e-07
1.23608e-07
1.31995e-07
1.40037e-07
1.47624e-07
1.56071e-07
1.64733e-07
1.73565e-07
1.82097e-07
1.90545e-07
1.99373e-07
2.07962e-07
2.16322e-07
2.24692e-07
2.3315e-07
2.42315e-07
2.50774e-07
2.57734e-07
2.64899e-07
2.72295e-07
2.79229e-07
2.85855e-07
2.91842e-07
2.9753e-07
3.02595e-07
3.07406e-07
3.11482e-07
3.15227e-07
3.18109e-07
3.20462e-07
3.22115e-07
3.23122e-07
3.23449e-07
3.22667e-07
3.21614e-07
3.19603e-07
3.17516e-07
3.13621e-07
3.09726e-07
3.04477e-07
2.98969e-07
2.92399e-07
2.85204e-07
2.77277e-07
2.68298e-07
2.59169e-07
2.49311e-07
2.39453e-07
2.28592e-07
2.17632e-07
2.06128e-07
1.94318e-07
1.82295e-07
1.69926e-07
1.57519e-07
1.44898e-07
1.32276e-07
1.19707e-07
1.0714e-07
1.00983e-07
9.48663e-08
8.87497e-08
8.26331e-08
7.67554e-08
7.09232e-08
6.50911e-08
5.93623e-08
5.38994e-08
4.84365e-08
4.30218e-08
3.79602e-08
3.28987e-08
2.79907e-08
2.32782e-08
1.86218e-08
1.41099e-08
9.59681e-09
7.33325e-09
4.99282e-09
2.57406e-09
0
)


113
(
0
2.21042e-09
4.31905e-09
6.45993e-09
8.69318e-09
1.10458e-08
1.3547e-08
1.62329e-08
1.90605e-08
2.20148e-08
2.51925e-08
2.85073e-08
3.19298e-08
3.55967e-08
3.93618e-08
4.32682e-08
4.73603e-08
5.15367e-08
5.58976e-08
6.03691e-08
6.49388e-08
6.96823e-08
7.44908e-08
7.94292e-08
8.4467e-08
8.95634e-08
9.47914e-08
1.00065e-07
1.05404e-07
1.10813e-07
1.16252e-07
1.2174e-07
1.27248e-07
1.32771e-07
1.38335e-07
1.43871e-07
1.49371e-07
1.54824e-07
1.60248e-07
1.65609e-07
1.70892e-07
1.76123e-07
1.81225e-07
1.86652e-07
1.92393e-07
1.98603e-07
2.04684e-07
2.08989e-07
2.13487e-07
2.18398e-07
2.22267e-07
2.2496e-07
2.2768e-07
2.30417e-07
2.32867e-07
2.35181e-07
2.34663e-07
2.32989e-07
2.33209e-07
2.34279e-07
2.34907e-07
2.35262e-07
2.35222e-07
2.34816e-07
2.34107e-07
2.32903e-07
2.31588e-07
2.29877e-07
2.28117e-07
2.25194e-07
2.2227e-07
2.18651e-07
2.149e-07
2.10633e-07
2.06064e-07
2.01167e-07
1.958e-07
1.90303e-07
1.84172e-07
1.78041e-07
1.71263e-07
1.64421e-07
1.57171e-07
1.4969e-07
1.42004e-07
1.33981e-07
1.25894e-07
1.17444e-07
1.08994e-07
1.0026e-07
9.1517e-08
8.70882e-08
8.26412e-08
7.81942e-08
7.37472e-08
6.92885e-08
6.48276e-08
6.03667e-08
5.59114e-08
5.14702e-08
4.7029e-08
4.25885e-08
3.81527e-08
3.37169e-08
2.92522e-08
2.47509e-08
2.02008e-08
1.55254e-08
1.06717e-08
8.18707e-09
5.56478e-09
2.85475e-09
0
)


113
(
0
3.63713e-09
7.02635e-09
1.02797e-08
1.34792e-08
1.66644e-08
1.98637e-08
2.3106e-08
2.63901e-08
2.97136e-08
3.31132e-08
3.65608e-08
4.0046e-08
4.36142e-08
4.72135e-08
5.08574e-08
5.45541e-08
5.82733e-08
6.20375e-08
6.58236e-08
6.96293e-08
7.34606e-08
7.71717e-08
8.05328e-08
8.41403e-08
8.78859e-08
9.16029e-08
9.53019e-08
9.89749e-08
1.02601e-07
1.062e-07
1.09741e-07
1.13228e-07
1.16679e-07
1.2003e-07
1.2333e-07
1.26565e-07
1.29688e-07
1.32752e-07
1.3571e-07
1.3856e-07
1.41339e-07
1.43965e-07
1.46492e-07
1.48925e-07
1.51175e-07
1.53365e-07
1.55341e-07
1.57232e-07
1.58944e-07
1.60521e-07
1.61946e-07
1.63186e-07
1.64303e-07
1.65194e-07
1.65978e-07
1.66509e-07
1.66937e-07
1.67102e-07
1.6715e-07
1.66948e-07
1.66594e-07
1.66021e-07
1.65247e-07
1.64307e-07
1.63096e-07
1.61787e-07
1.60129e-07
1.58453e-07
1.56339e-07
1.54224e-07
1.51723e-07
1.49148e-07
1.46283e-07
1.43249e-07
1.40027e-07
1.36537e-07
1.33047e-07
1.29557e-07
1.26067e-07
1.21688e-07
1.1722e-07
1.12507e-07
1.07656e-07
1.0267e-07
9.74658e-08
9.2214e-08
8.66936e-08
8.11732e-08
7.53828e-08
6.95841e-08
6.65897e-08
6.35653e-08
6.05409e-08
5.75165e-08
5.43891e-08
5.1242e-08
4.8095e-08
4.49091e-08
4.16233e-08
3.83375e-08
3.50306e-08
3.15692e-08
2.81077e-08
2.45475e-08
2.08615e-08
1.71012e-08
1.315e-08
9.01893e-09
6.89765e-09
4.66796e-09
2.37913e-09
0
)


113
(
0
3.79878e-09
7.3581e-09
1.07236e-08
1.39519e-08
1.70719e-08
2.00974e-08
2.304e-08
2.59326e-08
2.87839e-08
3.15765e-08
3.43389e-08
3.70776e-08
3.97682e-08
4.24402e-08
4.50853e-08
4.76941e-08
5.02858e-08
5.28382e-08
5.53637e-08
5.78656e-08
6.03182e-08
6.27498e-08
6.51375e-08
6.74838e-08
6.98056e-08
7.20587e-08
7.42809e-08
7.64585e-08
7.85714e-08
8.065e-08
8.26603e-08
8.46144e-08
8.65305e-08
8.83512e-08
9.01276e-08
9.18456e-08
9.34721e-08
9.50519e-08
9.65494e-08
9.79659e-08
9.93311e-08
1.00588e-07
1.01777e-07
1.02901e-07
1.03906e-07
1.04872e-07
1.05702e-07
1.06479e-07
1.07146e-07
1.07733e-07
1.08228e-07
1.08616e-07
1.08931e-07
1.09118e-07
1.09244e-07
1.09229e-07
1.09156e-07
1.0894e-07
1.08658e-07
1.08243e-07
1.07746e-07
1.07133e-07
1.06412e-07
1.05605e-07
1.04655e-07
1.03655e-07
1.02473e-07
1.01282e-07
9.98639e-08
9.84462e-08
9.68293e-08
9.51745e-08
9.33703e-08
9.14783e-08
8.94893e-08
8.73605e-08
8.51915e-08
8.28261e-08
8.04608e-08
7.78809e-08
7.52797e-08
7.25285e-08
6.96927e-08
6.67679e-08
6.36978e-08
6.0592e-08
5.72842e-08
5.39764e-08
5.04293e-08
4.68748e-08
4.49972e-08
4.3088e-08
4.11788e-08
3.92696e-08
3.72386e-08
3.51844e-08
3.31302e-08
3.10306e-08
2.8814e-08
2.65975e-08
2.43593e-08
2.19623e-08
1.95652e-08
1.70835e-08
1.44942e-08
1.1852e-08
9.07374e-09
6.18602e-09
4.70887e-09
3.17318e-09
1.60811e-09
0
)


113
(
0
2.54188e-09
4.96262e-09
7.268e-09
9.47793e-09
1.1602e-08
1.36405e-08
1.55906e-08
1.74799e-08
1.93169e-08
2.10691e-08
2.27731e-08
2.44392e-08
2.60242e-08
2.75776e-08
2.90859e-08
3.05359e-08
3.19594e-08
3.3325e-08
3.46552e-08
3.59539e-08
3.71945e-08
3.84123e-08
3.95836e-08
4.07157e-08
4.18246e-08
4.28743e-08
4.38995e-08
4.48895e-08
4.58322e-08
4.67507e-08
4.76226e-08
4.84585e-08
4.92701e-08
5.00237e-08
5.07517e-08
5.14458e-08
5.20892e-08
5.27073e-08
5.32814e-08
5.38137e-08
5.43198e-08
5.47714e-08
5.51901e-08
5.55772e-08
5.59076e-08
5.62194e-08
5.64681e-08
5.66932e-08
5.6868e-08
5.70067e-08
5.71049e-08
5.71557e-08
5.7175e-08
5.71385e-08
5.70758e-08
5.69527e-08
5.6805e-08
5.65964e-08
5.63604e-08
5.6068e-08
5.5741e-08
5.53652e-08
5.49445e-08
5.44871e-08
5.39699e-08
5.3431e-08
5.28151e-08
5.21951e-08
5.14777e-08
5.07603e-08
4.99554e-08
4.91338e-08
4.82445e-08
4.73156e-08
4.63409e-08
4.53006e-08
4.42404e-08
4.30832e-08
4.19261e-08
4.06567e-08
3.93763e-08
3.80121e-08
3.66008e-08
3.51364e-08
3.35855e-08
3.20121e-08
3.03113e-08
2.86104e-08
2.67533e-08
2.48913e-08
2.38948e-08
2.28777e-08
2.18606e-08
2.08434e-08
1.97502e-08
1.86425e-08
1.75347e-08
1.64009e-08
1.51999e-08
1.39989e-08
1.27868e-08
1.14931e-08
1.01994e-08
8.86733e-09
7.48649e-09
6.08439e-09
4.62763e-09
3.1312e-09
2.37106e-09
1.59133e-09
8.02298e-10
0
)


113
(
0
2.44534e-10
4.83254e-10
7.15872e-10
9.42954e-10
1.16467e-09
1.38062e-09
1.59003e-09
1.79461e-09
1.9949e-09
2.18771e-09
2.37593e-09
2.56054e-09
2.73684e-09
2.90972e-09
3.0777e-09
3.23902e-09
3.39728e-09
3.54865e-09
3.69569e-09
3.83889e-09
3.9748e-09
4.10784e-09
4.23497e-09
4.35709e-09
4.47622e-09
4.58777e-09
4.69618e-09
4.80007e-09
4.89793e-09
4.99272e-09
5.08162e-09
5.16599e-09
5.24734e-09
5.32149e-09
5.39251e-09
5.45939e-09
5.52013e-09
5.57786e-09
5.63034e-09
5.6779e-09
5.7224e-09
5.76057e-09
5.79499e-09
5.82578e-09
5.85017e-09
5.87246e-09
5.88773e-09
5.90038e-09
5.90749e-09
5.91068e-09
5.90945e-09
5.90312e-09
5.89339e-09
5.87771e-09
5.85923e-09
5.83437e-09
5.8069e-09
5.77303e-09
5.7363e-09
5.69369e-09
5.64747e-09
5.5962e-09
5.54027e-09
5.48057e-09
5.41472e-09
5.34664e-09
5.27069e-09
5.19433e-09
5.10808e-09
5.02183e-09
4.92677e-09
4.83003e-09
4.72657e-09
4.61917e-09
4.5073e-09
4.38901e-09
4.26882e-09
4.13938e-09
4.00993e-09
3.8701e-09
3.72924e-09
3.58094e-09
3.42846e-09
3.27151e-09
3.10729e-09
2.94131e-09
2.76532e-09
2.58934e-09
2.40208e-09
2.21448e-09
2.11639e-09
2.01696e-09
1.91753e-09
1.8181e-09
1.71421e-09
1.60947e-09
1.50473e-09
1.39864e-09
1.28904e-09
1.17945e-09
1.06933e-09
9.5544e-10
8.41546e-10
7.26059e-10
6.08547e-10
4.90233e-10
3.69859e-10
2.48101e-10
1.8681e-10
1.24874e-10
6.26432e-11
0
)

)


10
(

113
(
0
4.16485e-35
5.15653e-34
2.96519e-33
9.89312e-33
2.57079e-32
5.6531e-32
1.07828e-31
1.77878e-31
2.49219e-31
2.91046e-31
2.80387e-31
2.18729e-31
1.26693e-31
4.51573e-32
1.0516e-31
4.78129e-31
2.17924e-30
1.17596e-29
7.55757e-29
5.5073e-28
4.05645e-27
2.08454e-26
2.64344e-25
3.6961e-24
5.5236e-23
8.55008e-22
1.33169e-20
2.03017e-19
2.94362e-18
3.94044e-17
4.74299e-16
5.05574e-15
4.70774e-14
3.94372e-13
3.56123e-12
2.85177e-11
1.86517e-10
9.99198e-10
4.41809e-09
1.60655e-08
4.80699e-08
1.12937e-07
2.12867e-07
3.37773e-07
4.73938e-07
6.12822e-07
7.54949e-07
9.09053e-07
1.08671e-06
1.29558e-06
1.54029e-06
1.82003e-06
2.12884e-06
2.45691e-06
2.78043e-06
3.06128e-06
3.27484e-06
3.40426e-06
3.38285e-06
3.21521e-06
2.94548e-06
2.56938e-06
2.13001e-06
1.69317e-06
1.27472e-06
9.39091e-07
6.48455e-07
4.42065e-07
2.93576e-07
1.78657e-07
1.19831e-07
7.09823e-08
4.54066e-08
2.72669e-08
1.64452e-08
1.02522e-08
5.85037e-09
3.85223e-09
2.17481e-09
1.47098e-09
8.6256e-10
5.71736e-10
3.44551e-10
2.18596e-10
1.31549e-10
7.5825e-11
4.4291e-11
2.08202e-11
1.20028e-11
5.07331e-12
3.71566e-12
2.35802e-12
1.35138e-12
9.79698e-13
6.08014e-13
3.25823e-13
2.28652e-13
1.31482e-13
7.27528e-14
4.67692e-14
2.14932e-14
1.41298e-14
6.76648e-15
3.74856e-15
1.49762e-15
7.50039e-16
2.56386e-16
6.23834e-17
2.01317e-17
5.95723e-18
5.79084e-19
0
)


113
(
0
7.78225e-26
2.30877e-24
6.30942e-23
7.04012e-22
5.68355e-21
4.46821e-20
3.20099e-19
1.89531e-18
1.01336e-17
5.26924e-17
2.37075e-16
9.52181e-16
3.39916e-15
1.06794e-14
3.2506e-14
1.07615e-13
3.2537e-13
9.04094e-13
2.33065e-12
5.6254e-12
1.27911e-11
2.76099e-11
6.25682e-11
1.343e-10
2.7406e-10
5.33194e-10
9.93607e-10
1.78195e-09
3.0957e-09
5.22645e-09
8.56463e-09
1.3632e-08
2.10979e-08
3.18388e-08
4.69848e-08
6.75896e-08
9.49201e-08
1.30343e-07
1.75186e-07
2.30714e-07
2.98477e-07
3.79526e-07
4.7415e-07
5.8293e-07
7.05621e-07
8.41757e-07
9.90084e-07
1.14973e-06
1.31692e-06
1.48779e-06
1.65784e-06
1.82194e-06
1.975e-06
2.11232e-06
2.22095e-06
2.29852e-06
2.34422e-06
2.35724e-06
2.32346e-06
2.24952e-06
2.14601e-06
2.01019e-06
1.8419e-06
1.66124e-06
1.46779e-06
1.27204e-06
1.07966e-06
8.98135e-07
7.34047e-07
5.80067e-07
4.58887e-07
3.47659e-07
2.62193e-07
1.91781e-07
1.36182e-07
9.68567e-08
6.38283e-08
4.46363e-08
2.75195e-08
1.87916e-08
1.11689e-08
7.22493e-09
4.17402e-09
2.54362e-09
1.46036e-09
8.17561e-10
4.74137e-10
2.30503e-10
1.41901e-10
7.06873e-11
5.42666e-11
3.78459e-11
2.51166e-11
1.90652e-11
1.30138e-11
8.22737e-12
6.05644e-12
3.88551e-12
2.45524e-12
1.65592e-12
8.76192e-13
5.92713e-13
3.09233e-13
1.81374e-13
8.10531e-14
4.3395e-14
1.76355e-14
6.04791e-15
2.94278e-15
1.39408e-15
4.5958e-16
0
)


113
(
0
5.08418e-13
1.80082e-12
4.80307e-12
1.0569e-11
2.11512e-11
3.97198e-11
7.07984e-11
1.21698e-10
2.02664e-10
3.2732e-10
5.1247e-10
7.79481e-10
1.15883e-09
1.69046e-09
2.4317e-09
3.46793e-09
4.86157e-09
6.70305e-09
9.09092e-09
1.21504e-08
1.6032e-08
2.08658e-08
2.71131e-08
3.48114e-08
4.42151e-08
5.55777e-08
6.91196e-08
8.51105e-08
1.03911e-07
1.25823e-07
1.50974e-07
1.7988e-07
2.12709e-07
2.49605e-07
2.90745e-07
3.36336e-07
3.85987e-07
4.39715e-07
4.97793e-07
5.59105e-07
6.24462e-07
6.9165e-07
7.62453e-07
8.33363e-07
9.06081e-07
9.78067e-07
1.04891e-06
1.11783e-06
1.18283e-06
1.24382e-06
1.29947e-06
1.34899e-06
1.3916e-06
1.42652e-06
1.45115e-06
1.46644e-06
1.47281e-06
1.47044e-06
1.45645e-06
1.43218e-06
1.40006e-06
1.3591e-06
1.30763e-06
1.25074e-06
1.18743e-06
1.11759e-06
1.04524e-06
9.69238e-07
8.91989e-07
8.14018e-07
7.37217e-07
6.6152e-07
5.88956e-07
5.19471e-07
4.53016e-07
3.9236e-07
3.33948e-07
2.84333e-07
2.3637e-07
1.97795e-07
1.61207e-07
1.31239e-07
1.04338e-07
8.23147e-08
6.38805e-08
4.83355e-08
3.66652e-08
2.62865e-08
1.95105e-08
1.35269e-08
1.14471e-08
9.36734e-09
7.5757e-09
6.30528e-09
5.03486e-09
3.94035e-09
3.20955e-09
2.47874e-09
1.91156e-09
1.48377e-09
1.06282e-09
8.152e-10
5.67577e-10
4.07285e-10
2.62621e-10
1.74773e-10
1.03457e-10
5.42245e-11
3.55333e-11
2.16639e-11
1.00993e-11
0
)


113
(
0
3.17848e-10
7.37643e-10
1.33454e-09
2.12934e-09
3.16579e-09
4.49491e-09
6.17148e-09
8.253e-09
1.07987e-08
1.38695e-08
1.75281e-08
2.18506e-08
2.69225e-08
3.28161e-08
3.9622e-08
4.748e-08
5.63798e-08
6.63244e-08
7.74614e-08
8.99149e-08
1.03675e-07
1.18757e-07
1.3541e-07
1.53595e-07
1.73511e-07
1.94633e-07
2.17314e-07
2.41721e-07
2.67503e-07
2.94782e-07
3.23624e-07
3.53164e-07
3.85067e-07
4.16718e-07
4.50291e-07
4.84709e-07
5.1917e-07
5.54948e-07
5.90422e-07
6.25435e-07
6.61007e-07
6.95292e-07
7.29012e-07
7.63113e-07
7.94187e-07
8.25084e-07
8.53766e-07
8.80447e-07
9.04548e-07
9.26611e-07
9.45827e-07
9.6226e-07
9.75958e-07
9.86687e-07
9.93661e-07
9.97029e-07
9.97326e-07
9.94724e-07
9.87984e-07
9.77585e-07
9.64276e-07
9.47596e-07
9.27072e-07
9.04411e-07
8.79145e-07
8.50662e-07
8.20739e-07
7.88422e-07
7.54655e-07
7.20047e-07
6.82476e-07
6.44425e-07
6.05286e-07
5.66128e-07
5.26951e-07
4.88521e-07
4.50382e-07
4.13562e-07
3.76993e-07
3.41861e-07
3.07443e-07
2.75405e-07
2.44551e-07
2.15581e-07
1.88501e-07
1.62943e-07
1.40036e-07
1.18013e-07
9.95819e-08
8.21282e-08
7.45357e-08
6.69432e-08
5.98589e-08
5.3694e-08
4.75291e-08
4.17621e-08
3.68178e-08
3.18735e-08
2.74734e-08
2.3537e-08
1.96313e-08
1.65029e-08
1.33745e-08
1.07836e-08
8.28983e-09
6.26739e-09
4.41762e-09
2.80556e-09
2.06751e-09
1.37841e-09
6.99561e-10
0
)


113
(
0
3.20324e-09
6.47746e-09
1.01758e-08
1.4369e-08
1.91258e-08
2.44942e-08
3.05038e-08
3.71727e-08
4.45126e-08
5.2532e-08
6.12379e-08
7.06354e-08
8.07301e-08
9.15245e-08
1.03072e-07
1.1541e-07
1.28446e-07
1.42168e-07
1.56566e-07
1.71623e-07
1.87323e-07
2.03643e-07
2.2064e-07
2.38406e-07
2.57202e-07
2.76233e-07
2.9533e-07
3.15052e-07
3.35184e-07
3.54819e-07
3.75166e-07
3.95576e-07
4.15914e-07
4.35569e-07
4.55484e-07
4.75029e-07
4.94578e-07
5.13098e-07
5.32041e-07
5.50874e-07
5.6787e-07
5.8562e-07
6.0137e-07
6.16762e-07
6.31186e-07
6.44731e-07
6.56645e-07
6.67798e-07
6.77969e-07
6.86711e-07
6.94233e-07
7.00386e-07
7.05167e-07
7.08827e-07
7.10736e-07
7.11228e-07
7.10283e-07
7.07885e-07
7.03482e-07
6.97834e-07
6.91156e-07
6.8325e-07
6.73915e-07
6.6331e-07
6.50962e-07
6.36516e-07
6.21493e-07
6.0595e-07
5.89157e-07
5.7164e-07
5.51986e-07
5.31931e-07
5.10932e-07
4.89472e-07
4.67556e-07
4.44625e-07
4.21302e-07
3.98204e-07
3.75118e-07
3.51905e-07
3.28737e-07
3.0572e-07
2.82902e-07
2.604e-07
2.38343e-07
2.16646e-07
1.95736e-07
1.75089e-07
1.55673e-07
1.36672e-07
1.27656e-07
1.18641e-07
1.09884e-07
1.01594e-07
9.33037e-08
8.52527e-08
7.76966e-08
7.01404e-08
6.29696e-08
5.61269e-08
4.93093e-08
4.31235e-08
3.69378e-08
3.12252e-08
2.55981e-08
2.03747e-08
1.5269e-08
1.02926e-08
7.81946e-09
5.30685e-09
2.72266e-09
0
)


113
(
0
7.91473e-09
1.53223e-08
2.27296e-08
3.03451e-08
3.82776e-08
4.65894e-08
5.53066e-08
6.44317e-08
7.39532e-08
8.38529e-08
9.41104e-08
1.04704e-07
1.15613e-07
1.26816e-07
1.3831e-07
1.50081e-07
1.62073e-07
1.74264e-07
1.86631e-07
1.99152e-07
2.11803e-07
2.24561e-07
2.37405e-07
2.50294e-07
2.63201e-07
2.76099e-07
2.88961e-07
3.01757e-07
3.14461e-07
3.27041e-07
3.39469e-07
3.51714e-07
3.63964e-07
3.80045e-07
3.91704e-07
4.03057e-07
4.14079e-07
4.24743e-07
4.35024e-07
4.44897e-07
4.54323e-07
4.63285e-07
4.71847e-07
4.80535e-07
4.89019e-07
4.96613e-07
5.05155e-07
5.10596e-07
5.15225e-07
5.19297e-07
5.2237e-07
5.24134e-07
5.24958e-07
5.25592e-07
5.24238e-07
5.22278e-07
5.15662e-07
5.05139e-07
5.02418e-07
4.98932e-07
4.94845e-07
4.90067e-07
4.84367e-07
4.78137e-07
4.71253e-07
4.6529e-07
4.58628e-07
4.49474e-07
4.39693e-07
4.29547e-07
4.18478e-07
4.07144e-07
3.95131e-07
3.82692e-07
3.69834e-07
3.56424e-07
3.42802e-07
3.28572e-07
3.1424e-07
2.99394e-07
2.84448e-07
2.69172e-07
2.53781e-07
2.3821e-07
2.22554e-07
2.06831e-07
1.91104e-07
1.75376e-07
1.59786e-07
1.44277e-07
1.36619e-07
1.2896e-07
1.2137e-07
1.13901e-07
1.06433e-07
9.90368e-08
9.17899e-08
8.4543e-08
7.74143e-08
7.03863e-08
6.33648e-08
5.65099e-08
4.9655e-08
4.2871e-08
3.6099e-08
2.92894e-08
2.23961e-08
1.53313e-08
1.17126e-08
7.95352e-09
4.06803e-09
0
)


113
(
0
1.04174e-08
2.0001e-08
2.91015e-08
3.79635e-08
4.67015e-08
5.53944e-08
6.40949e-08
7.28341e-08
8.16276e-08
9.04809e-08
9.9393e-08
1.08359e-07
1.17371e-07
1.26421e-07
1.35498e-07
1.44589e-07
1.53678e-07
1.62753e-07
1.71801e-07
1.80812e-07
1.89771e-07
1.98668e-07
2.05162e-07
2.13323e-07
2.21645e-07
2.29828e-07
2.37859e-07
2.45726e-07
2.53415e-07
2.60914e-07
2.68211e-07
2.75292e-07
2.82147e-07
2.88764e-07
2.95126e-07
3.01227e-07
3.07059e-07
3.12613e-07
3.1788e-07
3.2285e-07
3.27505e-07
3.31841e-07
3.35853e-07
3.39538e-07
3.42886e-07
3.45893e-07
3.48554e-07
3.50838e-07
3.52745e-07
3.54287e-07
3.55459e-07
3.56264e-07
3.56704e-07
3.56786e-07
3.56406e-07
3.55636e-07
3.5451e-07
3.53041e-07
3.51106e-07
3.4876e-07
3.4609e-07
3.43046e-07
3.39497e-07
3.35656e-07
3.31453e-07
3.26752e-07
3.21801e-07
3.16407e-07
3.10633e-07
3.04639e-07
2.98069e-07
2.91328e-07
2.84146e-07
2.76674e-07
2.68917e-07
2.6076e-07
2.52449e-07
2.45121e-07
2.37715e-07
2.28151e-07
2.18493e-07
2.08524e-07
1.98419e-07
1.88096e-07
1.77606e-07
1.66982e-07
1.56174e-07
1.45305e-07
1.34243e-07
1.23133e-07
1.17522e-07
1.11911e-07
1.06273e-07
1.00589e-07
9.49048e-08
8.91931e-08
8.34248e-08
7.76565e-08
7.18261e-08
6.5943e-08
6.00536e-08
5.40059e-08
4.79583e-08
4.17184e-08
3.5443e-08
2.88866e-08
2.21655e-08
1.51733e-08
1.15701e-08
7.82933e-09
3.98305e-09
0
)


113
(
0
9.33076e-09
1.80082e-08
2.61597e-08
3.39354e-08
4.13972e-08
4.85951e-08
5.55728e-08
6.23654e-08
6.89998e-08
7.54959e-08
8.18681e-08
8.81265e-08
9.42784e-08
1.00329e-07
1.06273e-07
1.12107e-07
1.17842e-07
1.23478e-07
1.29013e-07
1.34444e-07
1.39768e-07
1.44982e-07
1.50062e-07
1.55024e-07
1.59864e-07
1.64577e-07
1.69159e-07
1.73605e-07
1.77912e-07
1.82074e-07
1.86088e-07
1.89949e-07
1.93653e-07
1.97196e-07
2.00571e-07
2.03778e-07
2.06815e-07
2.09678e-07
2.12366e-07
2.14874e-07
2.17195e-07
2.19328e-07
2.21274e-07
2.23031e-07
2.24597e-07
2.25971e-07
2.27151e-07
2.28123e-07
2.28886e-07
2.29451e-07
2.29814e-07
2.29978e-07
2.29946e-07
2.29721e-07
2.29249e-07
2.28569e-07
2.277e-07
2.26647e-07
2.25347e-07
2.23829e-07
2.22138e-07
2.20248e-07
2.18089e-07
2.15773e-07
2.13264e-07
2.10485e-07
2.07573e-07
2.0442e-07
2.01059e-07
1.97577e-07
1.93776e-07
1.89878e-07
1.85732e-07
1.81419e-07
1.7694e-07
1.72225e-07
1.67417e-07
1.62315e-07
1.57158e-07
1.51707e-07
1.46184e-07
1.40421e-07
1.3454e-07
1.28471e-07
1.22235e-07
1.15865e-07
1.09268e-07
1.02596e-07
9.56179e-08
8.85409e-08
8.48874e-08
8.12338e-08
7.75174e-08
7.36871e-08
6.98569e-08
6.59628e-08
6.19367e-08
5.79107e-08
5.37667e-08
4.95222e-08
4.52686e-08
4.07833e-08
3.6298e-08
3.15936e-08
2.68491e-08
2.18459e-08
1.67154e-08
1.13867e-08
8.65052e-09
5.83074e-09
2.9517e-09
0
)


113
(
0
5.62796e-09
1.09689e-08
1.60399e-08
2.089e-08
2.55322e-08
2.99786e-08
3.42435e-08
3.83412e-08
4.22846e-08
4.60851e-08
4.97523e-08
5.32942e-08
5.67174e-08
6.00278e-08
6.32225e-08
6.6301e-08
6.92799e-08
7.21624e-08
7.49506e-08
7.76467e-08
8.02522e-08
8.27682e-08
8.5183e-08
8.75122e-08
8.97563e-08
9.19159e-08
9.39914e-08
9.59832e-08
9.78914e-08
9.97162e-08
1.01458e-07
1.03116e-07
1.04691e-07
1.06182e-07
1.07588e-07
1.0891e-07
1.10149e-07
1.11305e-07
1.12378e-07
1.13368e-07
1.14271e-07
1.1509e-07
1.15824e-07
1.16474e-07
1.1704e-07
1.17522e-07
1.17919e-07
1.18227e-07
1.18446e-07
1.1858e-07
1.18628e-07
1.18592e-07
1.18473e-07
1.18273e-07
1.17969e-07
1.17578e-07
1.17107e-07
1.16559e-07
1.15907e-07
1.15163e-07
1.14345e-07
1.13443e-07
1.12426e-07
1.11342e-07
1.10173e-07
1.08887e-07
1.07542e-07
1.06089e-07
1.04542e-07
1.0294e-07
1.01189e-07
9.93912e-08
9.74736e-08
9.5472e-08
9.33878e-08
9.11787e-08
8.89213e-08
8.64999e-08
8.40478e-08
8.14218e-08
7.87502e-08
7.59271e-08
7.30242e-08
6.99943e-08
6.68439e-08
6.35963e-08
6.01766e-08
5.66995e-08
5.29821e-08
4.91875e-08
4.71999e-08
4.52124e-08
4.31772e-08
4.10558e-08
3.89344e-08
3.67678e-08
3.45077e-08
3.22476e-08
2.99114e-08
2.75103e-08
2.5104e-08
2.25634e-08
2.00229e-08
1.73691e-08
1.46946e-08
1.19003e-08
9.05247e-09
6.12401e-09
4.63206e-09
3.10976e-09
1.567e-09
0
)


113
(
0
5.02792e-10
9.93352e-10
1.4712e-09
1.93769e-09
2.39262e-09
2.83579e-09
3.26724e-09
3.68709e-09
4.09558e-09
4.49291e-09
4.87928e-09
5.25489e-09
5.61987e-09
5.97435e-09
6.3177e-09
6.64942e-09
6.97092e-09
7.28228e-09
7.58355e-09
7.87479e-09
8.15604e-09
8.42729e-09
8.6871e-09
8.93714e-09
9.17744e-09
9.40803e-09
9.62892e-09
9.84015e-09
1.00417e-08
1.02337e-08
1.04161e-08
1.05889e-08
1.07522e-08
1.09059e-08
1.105e-08
1.11846e-08
1.13099e-08
1.14259e-08
1.15326e-08
1.16301e-08
1.17181e-08
1.17967e-08
1.18661e-08
1.19264e-08
1.19776e-08
1.20197e-08
1.20528e-08
1.20762e-08
1.20901e-08
1.2095e-08
1.20908e-08
1.20777e-08
1.20558e-08
1.20253e-08
1.19838e-08
1.19332e-08
1.18741e-08
1.18069e-08
1.17288e-08
1.16409e-08
1.15453e-08
1.14408e-08
1.13242e-08
1.12004e-08
1.10678e-08
1.09228e-08
1.07715e-08
1.06088e-08
1.04362e-08
1.02577e-08
1.00635e-08
9.86442e-09
9.65273e-09
9.43227e-09
9.20316e-09
8.96114e-09
8.71411e-09
8.45037e-09
8.18352e-09
7.8993e-09
7.61066e-09
7.30732e-09
6.99651e-09
6.67382e-09
6.34038e-09
5.99827e-09
5.64166e-09
5.28021e-09
4.89986e-09
4.51388e-09
4.31433e-09
4.11478e-09
3.91205e-09
3.70357e-09
3.4951e-09
3.28388e-09
3.06698e-09
2.85008e-09
2.62898e-09
2.40431e-09
2.17937e-09
1.94771e-09
1.71605e-09
1.4792e-09
1.24142e-09
9.98582e-10
7.53646e-10
5.05612e-10
3.8057e-10
2.54452e-10
1.27632e-10
0
)

)


10
(

113
(
0
6.1363e-36
2.00538e-34
2.27642e-33
1.51232e-32
8.22624e-32
3.90288e-31
1.61387e-30
5.78595e-30
1.82503e-29
5.48263e-29
1.61675e-28
4.7275e-28
1.33846e-27
4.12308e-27
1.756e-26
8.35e-26
4.03e-25
1.54983e-24
7.16817e-24
4.904e-23
3.552e-22
2.62533e-21
1.65146e-20
6.61377e-20
6.11025e-19
5.53875e-18
4.68758e-17
3.475e-16
1.94917e-15
1.05408e-14
9.37091e-14
7.10667e-13
4.605e-12
2.68545e-11
1.47182e-10
7.00818e-10
2.9e-09
1.05e-08
4.02273e-08
1.28127e-07
3.478e-07
7.40545e-07
1.3667e-06
2.15273e-06
3.01455e-06
3.88273e-06
4.66e-06
5.305e-06
5.83e-06
6.13769e-06
6.30583e-06
6.29077e-06
6.10571e-06
5.73429e-06
5.19143e-06
4.55143e-06
3.83e-06
3.13e-06
2.48938e-06
1.90813e-06
1.445e-06
1.037e-06
7.27e-07
5.09235e-07
3.31e-07
2.36556e-07
1.51411e-07
1.03467e-07
6.54556e-08
4.23444e-08
2.71632e-08
1.72684e-08
1.12937e-08
6.99895e-09
4.74e-09
2.99e-09
2.048e-09
1.308e-09
9.032e-10
5.822e-10
4.032e-10
2.597e-10
1.75168e-10
1.05379e-10
7.104e-11
4.064e-11
2.495e-11
1.18094e-11
6.90389e-12
3.01682e-12
2.26153e-12
1.50624e-12
8.60375e-13
6.5225e-13
4.44125e-13
2.36e-13
1.788e-13
1.216e-13
6.44e-14
4.51917e-14
2.59833e-14
1.47355e-14
8.79455e-15
4.39e-15
2.29e-15
9.89714e-16
3.28117e-16
8.87e-17
4.495e-17
1.1085e-17
1.28975e-18
0
)


113
(
0
1.10704e-24
3.67642e-23
5.85056e-22
5.93416e-21
4.50196e-20
3.70178e-19
2.6014e-18
1.58641e-17
8.93198e-17
4.5173e-16
2.00714e-15
7.32272e-15
2.33977e-14
7.91692e-14
2.69558e-13
8.65603e-13
2.5281e-12
6.03125e-12
1.50512e-11
4.02614e-11
9.45553e-11
2.10931e-10
4.43014e-10
8.7457e-10
1.80169e-09
3.4963e-09
6.46742e-09
1.14564e-08
1.94734e-08
3.27607e-08
5.38281e-08
8.60325e-08
1.3201e-07
1.95352e-07
2.8238e-07
3.9711e-07
5.44096e-07
7.27038e-07
9.5336e-07
1.21904e-06
1.51968e-06
1.85414e-06
2.21092e-06
2.58212e-06
2.9535e-06
3.31091e-06
3.63936e-06
3.9293e-06
4.16745e-06
4.32243e-06
4.41179e-06
4.42438e-06
4.36845e-06
4.23309e-06
4.02619e-06
3.77425e-06
3.4816e-06
3.14588e-06
2.80252e-06
2.45152e-06
2.11283e-06
1.78637e-06
1.48523e-06
1.21963e-06
9.69259e-07
7.77497e-07
5.96939e-07
4.61194e-07
3.43904e-07
2.54297e-07
1.85621e-07
1.30899e-07
9.30848e-08
6.25166e-08
4.39332e-08
2.8346e-08
1.93956e-08
1.21045e-08
8.10238e-09
4.92252e-09
3.23201e-09
1.91384e-09
1.22856e-09
7.01508e-10
4.62228e-10
2.54924e-10
1.62919e-10
8.842e-11
5.61748e-11
2.9776e-11
2.33975e-11
1.7019e-11
1.14233e-11
8.95917e-12
6.49505e-12
4.03092e-12
3.09763e-12
2.16434e-12
1.23105e-12
8.87762e-13
5.44471e-13
3.30013e-13
2.01444e-13
1.05353e-13