/*--------------------------------*- C++ -*----------------------------------*\
| =========                 |                                                 |
| \\      /  F ield         | OpenFOAM: The Open Source CFD Toolbox           |
|  \\    /   O peration     | Version:  2.3.0                                 |
|   \\  /    A nd           | Web:      www.OpenFOAM.org                      |
|    \\/     M anipulation  |                                                 |
\*---------------------------------------------------------------------------*/
FoamFile
{
    version     2.0;
    format      ascii;
    class       dictionary;
    location    "constant";
    object      C2H6;
}
// * * * * * * * * * * * * * * * * * * * * * * * * * * * * * * * * * * * * * //

C2H6_table
13
(

10
(

113
(
0
1.37708e-26
9.99229e-27
6.7796e-27
4.24763e-27
2.395e-27
1.22833e-27
6.14723e-28
2.5567e-28
7.81083e-29
2.82275e-29
4.51385e-30
1.36e-30
5.59057e-31
6.48719e-32
1.21203e-32
8.01387e-34
3.70226e-36
2.24494e-36
1.63479e-36
1.77589e-36
1.99052e-35
1.80721e-34
7.41956e-34
2.72377e-32
1.54363e-31
4.49753e-30
2.29871e-28
7.73312e-28
6.2325e-26
2.78436e-24
1.54575e-23
2.23389e-21
4.37046e-20
1.93943e-18
4.18591e-16
1.38503e-15
2.40644e-13
9.22168e-12
4.17242e-11
8.55276e-10
3.4318e-09
1.63635e-08
5.11928e-08
1.07061e-07
2.33017e-07
3.87542e-07
6.65196e-07
1.0159e-06
1.52185e-06
2.19968e-06
3.07134e-06
4.27313e-06
5.695e-06
7.68604e-06
9.94492e-06
1.3201e-05
1.68644e-05
2.21667e-05
2.82053e-05
3.69362e-05
4.73171e-05
6.17037e-05
7.97879e-05
0.000103139
0.000135083
0.00017211
0.000227156
0.000283673
0.000375491
0.000467309
0.000598308
0.000736769
0.000896405
0.00106848
0.0012304
0.00137772
0.00151204
0.00158283
0.00165363
0.00163996
0.00161793
0.00156186
0.00148664
0.00140081
0.00129767
0.00119383
0.00108603
0.000978234
0.000874751
0.000771402
0.000721969
0.000673245
0.00062452
0.000575796
0.000529775
0.00048427
0.000438764
0.000394304
0.000352532
0.000310759
0.000269478
0.000231791
0.000194104
0.00015813
0.000124333
9.19457e-05
6.31802e-05
3.71946e-05
2.50714e-05
1.47143e-05
5.92762e-06
0
)


113
(
0
1.85154e-26
2.10326e-25
4.608e-24
6.71656e-23
6.60564e-22
3.56889e-21
3.26691e-20
2.79062e-19
1.08042e-18
6.62982e-18
3.43103e-17
7.93796e-17
4.8765e-16
2.10958e-15
5.478e-15
2.28007e-14
6.12223e-14
1.85624e-13
5.5178e-13
1.13232e-12
3.75639e-12
8.80921e-12
2.01283e-11
4.76493e-11
8.58567e-11
2.01134e-10
4.12155e-10
7.60955e-10
1.55274e-09
2.72348e-09
4.90325e-09
8.80986e-09
1.39317e-08
2.45015e-08
3.9499e-08
6.03659e-08
9.71764e-08
1.45158e-07
2.15738e-07
3.21253e-07
4.52141e-07
6.53993e-07
9.20195e-07
1.24822e-06
1.74834e-06
2.31671e-06
3.17216e-06
4.19063e-06
5.55557e-06
7.30792e-06
9.49716e-06
1.24708e-05
1.59674e-05
2.08961e-05
2.64988e-05
3.45047e-05
4.34923e-05
5.61668e-05
7.04977e-05
8.98794e-05
0.000112357
0.000140933
0.00017514
0.000215231
0.00026492
0.000318612
0.000386498
0.000455093
0.00054071
0.000626326
0.000722183
0.00081999
0.000917859
0.00101576
0.00110715
0.00118916
0.00126572
0.00131573
0.00136573
0.00137732
0.00138511
0.00136582
0.0013313
0.00128423
0.00121669
0.00114614
0.0010586
0.000971051
0.000875918
0.00078055
0.000732967
0.000685416
0.000637865
0.000590314
0.000544673
0.000499396
0.000454119
0.000409754
0.000367733
0.000325713
0.000284141
0.000245859
0.000207578
0.000171054
0.000136766
0.000103594
7.32869e-05
4.53673e-05
3.21559e-05
2.04791e-05
9.74558e-06
0
)


113
(
0
5.51315e-13
2.02751e-12
5.60335e-12
1.29154e-11
2.64942e-11
5.13232e-11
9.97571e-11
1.80411e-10
2.96104e-10
5.17976e-10
8.61955e-10
1.30188e-09
2.16733e-09
3.34268e-09
4.96396e-09
7.64834e-09
1.09738e-08
1.61315e-08
2.34933e-08
3.28095e-08
4.74258e-08
6.52289e-08
9.04262e-08
1.25637e-07
1.66928e-07
2.30149e-07
3.07833e-07
4.06331e-07
5.45388e-07
7.0939e-07
9.29084e-07
1.21356e-06
1.54245e-06
2.01895e-06
2.57361e-06
3.23188e-06
4.15163e-06
5.20343e-06
6.48745e-06
8.16843e-06
1.00943e-05
1.25079e-05
1.54118e-05
1.87868e-05
2.30519e-05
2.76733e-05
3.3805e-05
4.05704e-05
4.86822e-05
5.8001e-05
6.86808e-05
8.13754e-05
9.54133e-05
0.000112062
0.000129938
0.000151185
0.000173808
0.000200135
0.000228126
0.000259702
0.000293474
0.000330196
0.00036964
0.000411021
0.000455563
0.000500957
0.000549372
0.000597852
0.000647902
0.000697951
0.000746679
0.000795156
0.000840422
0.000883802
0.000923428
0.00095765
0.000989616
0.00101056
0.00103151
0.00103753
0.00104207
0.00103484
0.00102099
0.00100004
0.000967495
0.000932545
0.000883968
0.00083539
0.000773718
0.000711642
0.000677271
0.000641847
0.000606424
0.000571001
0.000533568
0.000495752
0.000457936
0.000419891
0.000381258
0.000342625
0.000304171
0.000267031
0.00022989
0.000193571
0.000158297
0.000123674
9.07251e-05
5.94564e-05
4.43285e-05
3.00493e-05
1.57514e-05
0
)


113
(
0
2.94759e-09
7.18031e-09
1.36529e-08
2.2908e-08
3.56079e-08
5.29967e-08
7.76834e-08
1.09525e-07
1.4835e-07
2.03252e-07
2.71855e-07
3.51223e-07
4.66834e-07
5.99744e-07
7.57547e-07
9.69293e-07
1.20759e-06
1.50968e-06
1.8698e-06
2.2814e-06
2.81816e-06
3.41123e-06
4.12497e-06
5.00053e-06
5.97142e-06
7.15382e-06
8.48036e-06
1.00143e-05
1.18395e-05
1.38347e-05
1.6196e-05
1.88879e-05
2.18038e-05
2.53372e-05
2.92305e-05
3.3601e-05
3.85842e-05
4.39384e-05
5.00033e-05
5.67397e-05
6.39567e-05
7.24862e-05
8.15607e-05
9.11587e-05
0.000102245
0.000113763
0.000126493
0.000139946
0.000154937
0.000170623
0.000187091
0.000205105
0.000224151
0.000244417
0.000265258
0.00028768
0.000310749
0.000334999
0.000359781
0.000385502
0.0004118
0.000438558
0.00046574
0.000493049
0.000520564
0.000547954
0.000574895
0.000601769
0.000627014
0.000652258
0.000675082
0.000697445
0.000717114
0.000735202
0.000751059
0.000763705
0.000775175
0.000780903
0.00078663
0.000784979
0.000782599
0.000774444
0.000763041
0.000747611
0.000725611
0.000702203
0.000670813
0.000639422
0.00060006
0.000560451
0.000537739
0.00051411
0.00049048
0.000466851
0.000440694
0.000414056
0.000387418
0.000360195
0.000331469
0.000302742
0.000273882
0.000244043
0.000214204
0.000184299
0.000154308
0.000124424
9.48105e-05
6.5139e-05
5.02337e-05
3.47026e-05
1.83413e-05
0
)


113
(
0
1.76271e-07
3.69786e-07
6.02588e-07
8.82026e-07
1.21399e-06
1.60995e-06
2.09031e-06
2.64193e-06
3.25964e-06
4.00908e-06
4.85345e-06
5.7724e-06
6.8916e-06
8.10641e-06
9.45883e-06
1.10266e-05
1.27006e-05
1.46302e-05
1.67433e-05
1.90194e-05
2.16437e-05
2.44181e-05
2.7509e-05
3.09486e-05
3.45941e-05
3.87261e-05
4.31023e-05
4.78302e-05
5.28544e-05
5.81338e-05
6.40949e-05
7.04779e-05
7.71341e-05
8.39572e-05
9.14094e-05
9.96957e-05
0.000108217
0.000116996
0.000126358
0.000136469
0.000146971
0.000157877
0.000169331
0.000181309
0.0001938
0.000206437
0.000219476
0.000233069
0.000247839
0.000262548
0.00027719
0.000292321
0.000307777
0.000323737
0.000339934
0.000356246
0.000372605
0.000388945
0.000405276
0.000421533
0.000437743
0.000453683
0.000469374
0.000484656
0.000499271
0.000513636
0.000527111
0.0005405
0.000551818
0.000563136
0.000571967
0.000580325
0.000587143
0.000593057
0.000596996
0.000598093
0.000598688
0.000596839
0.00059499
0.000588956
0.000582507
0.000572838
0.000561358
0.000547851
0.000531039
0.000513407
0.000491131
0.000468854
0.000441368
0.000413719
0.000397996
0.000381674
0.000365351
0.000349029
0.000330901
0.00031243
0.000293958
0.000275019
0.000254878
0.000234736
0.000214453
0.000193126
0.000171799
0.000150055
0.00012778
0.000105171
8.17062e-05
5.70488e-05
4.43208e-05
3.05327e-05
1.59674e-05
0
)


113
(
0
1.34776e-06
2.6745e-06
4.06533e-06
5.5571e-06
7.16979e-06
8.93103e-06
1.08809e-05
1.29812e-05
1.52177e-05
1.77069e-05
2.03617e-05
2.31467e-05
2.62491e-05
2.94893e-05
3.29279e-05
3.66495e-05
4.05048e-05
4.46674e-05
4.90325e-05
5.35773e-05
5.84757e-05
6.35176e-05
6.88561e-05
7.44541e-05
8.02061e-05
8.6359e-05
9.268e-05
9.9243e-05
0.000106132
0.000113187
0.000120561
0.000128177
0.000135963
0.000144447
0.000152962
0.00016152
0.000170381
0.000179387
0.000188641
0.000198112
0.000207716
0.000217577
0.000228482
0.000240389
0.000251196
0.000261875
0.000273225
0.000284276
0.000294688
0.000305301
0.00031614
0.000326503
0.000336549
0.000345962
0.000355077
0.000361641
0.000367163
0.00037508
0.000384073
0.00039264
0.000400945
0.000408794
0.000416223
0.000423241
0.00042959
0.000435706
0.000440995
0.000446211
0.000449665
0.000453118
0.000455118
0.00045684
0.000457322
0.000457076
0.000455921
0.00045346
0.00045058
0.000445654
0.000440728
0.000433342
0.000425713
0.000416226
0.000405693
0.000394003
0.000380426
0.000366385
0.000349709
0.000333034
0.000313417
0.000293709
0.000282779
0.000271509
0.00026024
0.00024897
0.000236636
0.000224098
0.000211561
0.000198704
0.000185024
0.000171345
0.000157529
0.000142719
0.000127909
0.000112532
9.64331e-05
7.9893e-05
6.22189e-05
4.33583e-05
3.35527e-05
2.29457e-05
1.18589e-05
0
)


113
(
0
3.72442e-06
7.26596e-06
1.07397e-05
1.42232e-05
1.77568e-05
2.1377e-05
2.51287e-05
2.8992e-05
3.2958e-05
3.71179e-05
4.14038e-05
4.57887e-05
5.04074e-05
5.51231e-05
5.99782e-05
6.50219e-05
7.01521e-05
7.54747e-05
8.09163e-05
8.64634e-05
9.22051e-05
9.79222e-05
0.000103507
0.000109389
0.000115441
0.000121647
0.00012791
0.000134257
0.000140702
0.000147193
0.000153767
0.000160392
0.000167052
0.000173774
0.000180514
0.000187277
0.000194056
0.000200835
0.000207608
0.000214359
0.000221092
0.000227769
0.000234399
0.000240981
0.00024745
0.000253878
0.000260147
0.000266342
0.000272381
0.000278285
0.000284039
0.000289586
0.000294996
0.000300125
0.000305123
0.000309774
0.000314284
0.000318401
0.00032234
0.000325872
0.000329155
0.000332047
0.00033458
0.000336791
0.000338479
0.000339959
0.000340704
0.000341408
0.000341112
0.000340815
0.00033956
0.000338122
0.000335904
0.000333229
0.000330005
0.000325993
0.000321885
0.000317304
0.000312723
0.000305788
0.00029862
0.000290467
0.000281758
0.000272448
0.000262156
0.000251624
0.000239731
0.000227837
0.000214392
0.000200899
0.000193547
0.000186003
0.000178458
0.000170914
0.000162687
0.00015433
0.000145973
0.000137372
0.000128146
0.000118919
0.000109575
9.93701e-05
8.91657e-05
7.84728e-05
6.71584e-05
5.55078e-05
4.29928e-05
2.97083e-05
2.28289e-05
1.55007e-05
7.93227e-06
0
)


113
(
0
5.64967e-06
1.10085e-05
1.61435e-05
2.11304e-05
2.60094e-05
3.08038e-05
3.55383e-05
4.02454e-05
4.49329e-05
4.96061e-05
5.42802e-05
5.8955e-05
6.36421e-05
6.83363e-05
7.30408e-05
7.776e-05
8.24854e-05
8.72238e-05
9.19674e-05
9.67156e-05
0.000101466
0.000106214
0.000110957
0.000115689
0.000120414
0.00012511
0.00012979
0.000134445
0.000139058
0.000143647
0.000148183
0.000152671
0.000157126
0.00016149
0.000165809
0.000170067
0.000174223
0.000178325
0.000182328
0.000186229
0.000190065
0.000193755
0.000197351
0.000200855
0.000204183
0.000207451
0.000210509
0.000213482
0.000216275
0.000218931
0.000221432
0.000223741
0.000225922
0.000227862
0.00022969
0.000231243
0.000232683
0.000233832
0.000234848
0.00023558
0.000236138
0.000236437
0.000236498
0.000236358
0.000235888
0.000235293
0.000234258
0.000233199
0.000231564
0.00022993
0.000227765
0.0002255
0.000222818
0.000219891
0.000216681
0.000213062
0.000209319
0.000204975
0.00020063
0.000195593
0.000190488
0.000184875
0.000178977
0.000172763
0.000166036
0.000159177
0.000151577
0.000143976
0.000135474
0.000126944
0.000122297
0.000117531
0.000112764
0.000107997
0.000102771
9.74569e-05
9.21429e-05
8.66606e-05
8.07452e-05
7.48299e-05
6.88361e-05
6.22673e-05
5.56984e-05
4.88302e-05
4.1581e-05
3.41479e-05
2.6242e-05
1.79605e-05
1.37057e-05
9.25178e-06
4.69849e-06
0
)


113
(
0
5.01178e-06
9.81275e-06
1.44142e-05
1.88515e-05
2.3142e-05
2.72868e-05
3.12824e-05
3.5176e-05
3.89819e-05
4.26468e-05
4.6232e-05
4.97545e-05
5.31434e-05
5.64806e-05
5.97436e-05
6.2911e-05
6.60349e-05
6.90636e-05
7.20337e-05
7.49519e-05
7.77734e-05
8.05566e-05
8.32618e-05
8.59004e-05
8.84995e-05
9.09968e-05
9.34516e-05
9.58449e-05
9.81545e-05
0.000100421
0.000102604
0.000104721
0.000106793
0.000108759
0.000110675
0.000112528
0.000114284
0.000115991
0.000117612
0.000119151
0.000120637
0.000122014
0.000123324
0.000124569
0.000125696
0.000126784
0.000127739
0.000128644
0.000129439
0.000130156
0.000130785
0.000131307
0.000131759
0.000132085
0.000132351
0.000132477
0.000132547
0.000132472
0.000132334
0.000132059
0.000131702
0.000131225
0.000130638
0.000129959
0.000129132
0.000128248
0.000127169
0.000126079
0.000124736
0.000123393
0.000121819
0.0001202
0.000118399
0.000116491
0.000114458
0.000112245
0.000109976
0.000107436
0.000104897
0.000102039
9.91501e-05
9.60203e-05
9.27551e-05
8.93354e-05
8.56639e-05
8.19264e-05
7.78146e-05
7.37028e-05
6.91285e-05
6.454e-05
6.20512e-05
5.95011e-05
5.69509e-05
5.44008e-05
5.1624e-05
4.88041e-05
4.59841e-05
4.30864e-05
3.99887e-05
3.68909e-05
3.37601e-05
3.03864e-05
2.70126e-05
2.35249e-05
1.98921e-05
1.61962e-05
1.23379e-05
8.36191e-06
6.33857e-06
4.25718e-06
2.14823e-06
0
)


113
(
0
6.02779e-07
1.19149e-06
1.76544e-06
2.32598e-06
2.87352e-06
3.40708e-06
3.9248e-06
4.43077e-06
4.92634e-06
5.40377e-06
5.87002e-06
6.32749e-06
6.76475e-06
7.1937e-06
7.6107e-06
8.01148e-06
8.40478e-06
8.78131e-06
9.14725e-06
9.50381e-06
9.84257e-06
1.01743e-05
1.04916e-05
1.07966e-05
1.10943e-05
1.13734e-05
1.16448e-05
1.19051e-05
1.21506e-05
1.23885e-05
1.2612e-05
1.28244e-05
1.30292e-05
1.32164e-05
1.33958e-05
1.3565e-05
1.37191e-05
1.38657e-05
1.39994e-05
1.41209e-05
1.42348e-05
1.4333e-05
1.4422e-05
1.45019e-05
1.45659e-05
1.46248e-05
1.46662e-05
1.4701e-05
1.47221e-05
1.47334e-05
1.47337e-05
1.47213e-05
1.47004e-05
1.46647e-05
1.46219e-05
1.45632e-05
1.44979e-05
1.44167e-05
1.43282e-05
1.4225e-05
1.41128e-05
1.39879e-05
1.38512e-05
1.37051e-05
1.35435e-05
1.33764e-05
1.31893e-05
1.30013e-05
1.27882e-05
1.25752e-05
1.234e-05
1.21005e-05
1.1844e-05
1.15775e-05
1.12997e-05
1.10057e-05
1.07068e-05
1.03844e-05
1.00621e-05
9.71334e-06
9.36199e-06
8.99172e-06
8.61082e-06
8.21855e-06
7.80774e-06
7.39244e-06
6.95164e-06
6.51085e-06
6.04127e-06
5.57079e-06
5.32462e-06
5.075e-06
4.82538e-06
4.57576e-06
4.31474e-06
4.05154e-06
3.78835e-06
3.52168e-06
3.24604e-06
2.97041e-06
2.69345e-06
2.4068e-06
2.12015e-06
1.82942e-06
1.53349e-06
1.23551e-06
9.32235e-07
6.25414e-07
4.70945e-07
3.14821e-07
1.5794e-07
0
)

)


10
(

113
(
0
2.91128e-26
2.26634e-26
1.6806e-26
1.17905e-26
7.74907e-27
4.7132e-27
2.61314e-27
1.29732e-27
5.64474e-28
2.08879e-28
6.28838e-29
1.46162e-29
2.52245e-30
3.18806e-31
4.44774e-32
6.84649e-33
6.29632e-34
7.13369e-35
2.75294e-34
1.92391e-33
1.32936e-32
6.6271e-32
7.6758e-31
9.80585e-30
1.35031e-28
1.95453e-27
2.90582e-26
4.35342e-25
6.53074e-24
1.02351e-22
1.94811e-21
5.1087e-20
1.46775e-18
3.12271e-17
1.05057e-15
4.06297e-14
1.17333e-12
2.37919e-11
3.25008e-10
2.95882e-09
1.97148e-08
8.88293e-08
2.87587e-07
7.24581e-07
1.52051e-06
2.7948e-06
4.68351e-06
7.47023e-06
1.15612e-05
1.74783e-05
2.60286e-05
3.82093e-05
5.51823e-05
7.81558e-05
0.000111705
0.000157236
0.000215753
0.000288141
0.00038182
0.000494483
0.000620157
0.000759161
0.000904289
0.00104583
0.00118017
0.00128975
0.00138446
0.00144996
0.00149027
0.00151597
0.00150952
0.0014957
0.00146368
0.0014236
0.00137559
0.00132074
0.00126323
0.00120102
0.00113817
0.00107335
0.0010084
0.000943015
0.000877881
0.000813143
0.000749126
0.000685689
0.000623568
0.000561885
0.000502331
0.000443526
0.000414999
0.000386472
0.000358443
0.000331318
0.000304193
0.000277575
0.000252008
0.000226441
0.000201804
0.000177959
0.000154186
0.000132237
0.000110288
9.0067e-05
7.01625e-05
5.23454e-05
3.56353e-05
2.07377e-05
1.40004e-05
8.20736e-06
3.30158e-06
0
)


113
(
0
4.83369e-26
6.99946e-25
2.02224e-23
2.42927e-22
2.5422e-21
2.01014e-20
1.54116e-19
1.03499e-18
5.95797e-18
3.3795e-17
1.72165e-16
7.57878e-16
2.89226e-15
9.58087e-15
3.06923e-14
1.11355e-13
3.69907e-13
1.14504e-12
3.23793e-12
8.45358e-12
2.05585e-11
4.70123e-11
1.17012e-10
2.78533e-10
6.29775e-10
1.35097e-09
2.77382e-09
5.48678e-09
1.04866e-08
1.94352e-08
3.50726e-08
6.177e-08
1.0657e-07
1.80517e-07
3.00597e-07
4.87206e-07
7.72176e-07
1.21073e-06
1.85357e-06
2.78991e-06
4.15907e-06
6.09389e-06
8.81514e-06
1.25443e-05
1.76113e-05
2.43582e-05
3.32488e-05
4.49586e-05
6.02251e-05
7.95261e-05
0.000103563
0.000132928
0.000168124
0.000209521
0.00025947
0.000316794
0.000380734
0.000450834
0.000528424
0.000610918
0.000696212
0.000783831
0.000870793
0.000955444
0.00103649
0.00110826
0.00117419
0.00122842
0.00127047
0.00130547
0.00132043
0.0013295
0.00132336
0.00130811
0.0012839
0.00124919
0.00121043
0.00116194
0.00111195
0.00105551
0.000998177
0.000937897
0.000877002
0.000815128
0.000753246
0.000691356
0.000630258
0.000569424
0.000510317
0.000451887
0.000423465
0.000395044
0.000367094
0.000339997
0.000312901
0.000286292
0.000260691
0.00023509
0.000210378
0.000186425
0.00016254
0.000140369
0.000118198
9.76288e-05
7.73526e-05
5.89914e-05
4.1525e-05
2.55547e-05
1.81701e-05
1.1509e-05
5.46841e-06
0
)


113
(
0
4.71349e-12
1.75261e-11
4.93532e-11
1.14059e-10
2.38175e-10
4.74531e-10
8.92976e-10
1.62658e-09
2.84916e-09
4.84655e-09
8.01356e-09
1.2907e-08
2.02832e-08
3.11401e-08
4.74694e-08
7.14016e-08
1.06859e-07
1.56247e-07
2.24808e-07
3.19074e-07
4.46026e-07
6.16018e-07
8.53992e-07
1.16926e-06
1.58163e-06
2.12089e-06
2.80673e-06
3.68644e-06
4.80883e-06
6.19993e-06
7.95168e-06
1.01109e-05
1.27623e-05
1.60027e-05
1.99432e-05
2.46744e-05
3.03574e-05
3.70352e-05
4.49589e-05
5.41515e-05
6.48418e-05
7.73051e-05
9.13237e-05
0.000107468
0.000125513
0.000145757
0.000168192
0.000193149
0.000220693
0.000250545
0.000282883
0.000317446
0.000354106
0.000392947
0.000433947
0.000476545
0.000520345
0.000565085
0.000610538
0.000656038
0.000701263
0.000745912
0.000788748
0.000830076
0.000869361
0.000904727
0.000937803
0.000966429
0.000990497
0.00101192
0.00102534
0.00103615
0.00104015
0.00103941
0.001034
0.00102172
0.00100677
0.000983542
0.000958839
0.000926281
0.000892127
0.000852657
0.00081106
0.000766079
0.000718864
0.000669851
0.000618805
0.000567083
0.000514322
0.000461567
0.000435207
0.000408847
0.00038264
0.00035671
0.00033078
0.000305063
0.000279785
0.000254507
0.00022973
0.000205378
0.000181085
0.000158263
0.00013544
0.000113753
9.2274e-05
7.21251e-05
5.26735e-05
3.43489e-05
2.56163e-05
1.73296e-05
9.09104e-06
0
)


113
(
0
1.99361e-08
4.78081e-08
8.95612e-08
1.47656e-07
2.26783e-07
3.32786e-07
4.72468e-07
6.53597e-07
8.8488e-07
1.17602e-06
1.5378e-06
1.98309e-06
2.5269e-06
3.18419e-06
3.97645e-06
4.93646e-06
6.07645e-06
7.40883e-06
8.96269e-06
1.07734e-05
1.28625e-05
1.52115e-05
1.80534e-05
2.12517e-05
2.48482e-05
2.89535e-05
3.35634e-05
3.87075e-05
4.44692e-05
5.08662e-05
5.79655e-05
6.58417e-05
7.43047e-05
8.38277e-05
9.4154e-05
0.00010526
0.000117496
0.00013037
0.000144449
0.000159478
0.000175531
0.000192586
0.000210724
0.000229557
0.000249647
0.000270411
0.000292263
0.000314744
0.000338251
0.000362242
0.000387029
0.000412261
0.000437715
0.000463502
0.000489459
0.000515506
0.000541399
0.000567013
0.000592115
0.000616577
0.000640405
0.000663395
0.00068485
0.000705259
0.000724315
0.000741186
0.000756839
0.000770179
0.000781204
0.000790887
0.00079684
0.00080154
0.000802955
0.000801963
0.000798601
0.000791296
0.000782466
0.000769274
0.000755242
0.000736305
0.000716286
0.000692668
0.000667121
0.000638507
0.000607324
0.000574073
0.000537852
0.000500641
0.000461458
0.000421636
0.00040098
0.000380324
0.000359422
0.000338078
0.000316733
0.000295276
0.000273588
0.000251899
0.000230195
0.000208478
0.000186771
0.00016532
0.000143868
0.000122873
0.000101963
8.17378e-05
6.18067e-05
4.21909e-05
3.24072e-05
2.23604e-05
1.17857e-05
0
)


113
(
0
5.65032e-07
1.16684e-06
1.87382e-06
2.70228e-06
3.67304e-06
4.80483e-06
6.11355e-06
7.61344e-06
9.3178e-06
1.12396e-05
1.33921e-05
1.57884e-05
1.84426e-05
2.13683e-05
2.46025e-05
2.81829e-05
3.20879e-05
3.6332e-05
4.09302e-05
4.58975e-05
5.1249e-05
5.70009e-05
6.32322e-05
6.9955e-05
7.71401e-05
8.49034e-05
9.31145e-05
0.000101654
0.000110664
0.0001202
0.000129936
0.00014056
0.000151289
0.000162805
0.000174519
0.000186854
0.000199598
0.00021281
0.000226284
0.000239999
0.000254673
0.000268883
0.000283989
0.000299133
0.000314569
0.000330112
0.000345992
0.00036194
0.000377799
0.000393701
0.000409604
0.000425479
0.000441235
0.000456738
0.00047189
0.000486694
0.00050114
0.000515201
0.000528627
0.000541384
0.000553537
0.000564932
0.000575162
0.000584788
0.000593693
0.000601219
0.000607951
0.000613153
0.000616931
0.000619882
0.000620599
0.000620494
0.000618212
0.000614361
0.000608966
0.000601866
0.000594104
0.000583968
0.00057336
0.000559916
0.000545759
0.000529224
0.000511514
0.000491931
0.000470723
0.000448205
0.000423623
0.000398352
0.000370602
0.000342187
0.00032721
0.000312233
0.000296936
0.000281063
0.00026519
0.0002491
0.00023256
0.00021602
0.00019925
0.000182284
0.000165309
0.000148117
0.000130925
0.000113605
9.62611e-05
7.86536e-05
6.07532e-05
4.2235e-05
3.26542e-05
2.24868e-05
1.17221e-05
0
)


113
(
0
2.63741e-06
5.17916e-06
7.79776e-06
1.05602e-05
1.35121e-05
1.66849e-05
2.00975e-05
2.37599e-05
2.76769e-05
3.18501e-05
3.62802e-05
4.0967e-05
4.59108e-05
5.11114e-05
5.65877e-05
6.23545e-05
6.83789e-05
7.46597e-05
8.11962e-05
8.79872e-05
9.50314e-05
0.000102327
0.000109909
0.000117732
0.000125791
0.000134082
0.000142598
0.000151332
0.000160278
0.000169427
0.000178769
0.000188294
0.000198009
0.000208224
0.000218238
0.000228383
0.000238641
0.000248999
0.000259439
0.000269946
0.000280503
0.000291092
0.000302092
0.00031562
0.000327634
0.000338903
0.000349806
0.000360532
0.000370993
0.000380877
0.000390372
0.000399458
0.000408021
0.000415972
0.000423133
0.000429398
0.000433112
0.000434907
0.000441234
0.000447026
0.000452373
0.000457189
0.000461227
0.000464784
0.000467734
0.000469852
0.000471455
0.000472037
0.000471817
0.000471134
0.000469125
0.00046669
0.000463147
0.000458804
0.000453673
0.000447327
0.000440512
0.000432089
0.000423366
0.000412949
0.000402098
0.000389807
0.000376787
0.000362611
0.000347406
0.000331373
0.000314003
0.000296186
0.000276723
0.000256804
0.000246316
0.000235829
0.000225108
0.000213967
0.000202826
0.000191501
0.000179796
0.000168091
0.00015611
0.000143894
0.000131659
0.00011892
0.000106181
9.29156e-05
7.95521e-05
6.54137e-05
5.07828e-05
3.53034e-05
2.72075e-05
1.86096e-05
9.59392e-06
0
)


113
(
0
5.39296e-06
1.04541e-05
1.53628e-05
2.02345e-05
2.51316e-05
3.00993e-05
3.51685e-05
4.03585e-05
4.568e-05
5.1138e-05
5.6734e-05
6.24673e-05
6.83362e-05
7.43375e-05
8.04769e-05
8.67557e-05
9.31527e-05
9.96628e-05
0.000106281
0.000113001
0.000119818
0.000126727
0.000133092
0.000139964
0.000146959
0.000153998
0.000161073
0.000168173
0.000175292
0.000182418
0.000189543
0.000196657
0.000203749
0.00021081
0.000217826
0.000224789
0.000231687
0.00023851
0.000245246
0.000251885
0.00025841
0.000264811
0.000271078
0.000277198
0.000283161
0.000288954
0.000294567
0.000299971
0.000305156
0.000310119
0.000314846
0.000319329
0.00032356
0.000327535
0.000331163
0.000334484
0.000337513
0.000340255
0.000342589
0.000344544
0.00034619
0.000347472
0.000348235
0.000348684
0.000348738
0.000348214
0.000347392
0.000346024
0.000344157
0.000342
0.000339033
0.00033581
0.000331921
0.000327557
0.000322726
0.000317185
0.00031137
0.000305425
0.000299306
0.000291217
0.000282892
0.000273779
0.000264269
0.000254128
0.000243422
0.000232262
0.000220356
0.000208201
0.000195088
0.000181689
0.000174656
0.000167624
0.000160424
0.000152921
0.000145418
0.000137757
0.000129767
0.000121777
0.000113502
0.000104984
9.64437e-05
8.73321e-05
7.82204e-05
6.85355e-05
5.87452e-05
4.82201e-05
3.72995e-05
2.57423e-05
1.97204e-05
1.33955e-05
6.8432e-06
0
)


113
(
0
6.75097e-06
1.31072e-05
1.91583e-05
2.50015e-05
3.06807e-05
3.62318e-05
4.16854e-05
4.70657e-05
5.2391e-05
5.76743e-05
6.29251e-05
6.815e-05
7.33535e-05
7.85384e-05
8.37051e-05
8.88527e-05
9.39825e-05
9.90929e-05
0.000104182
0.000109246
0.000114284
0.000119291
0.000124257
0.000129183
0.000134065
0.000138899
0.000143679
0.000148402
0.000153061
0.000157652
0.00016217
0.000166608
0.000170963
0.000175227
0.000179395
0.000183462
0.000187423
0.000191275
0.000195011
0.000198627
0.000202113
0.000205465
0.000208681
0.000211755
0.000214682
0.000217459
0.00022008
0.000222529
0.000224803
0.000226905
0.00022883
0.000230575
0.00023214
0.000233524
0.000234671
0.000235613
0.000236364
0.000236928
0.000237235
0.000237306
0.000237189
0.000236851
0.000236207
0.000235378
0.000234322
0.000232938
0.000231386
0.00022953
0.000227403
0.000225117
0.000222397
0.000219541
0.000216334
0.000212881
0.000209184
0.000205122
0.000200919
0.00019624
0.000191472
0.000186208
0.000180817
0.000175002
0.000168969
0.00016259
0.00015589
0.000148932
0.000141525
0.000133969
0.000125795
0.000117421
0.000113002
0.000108582
0.000104037
9.92633e-05
9.44901e-05
8.95921e-05
8.4436e-05
7.92799e-05
7.38998e-05
6.83288e-05
6.2741e-05
5.67258e-05
5.07106e-05
4.43018e-05
3.78208e-05
3.08851e-05
2.3729e-05
1.62319e-05
1.23606e-05
8.34763e-06
4.2348e-06
0
)


113
(
0
5.25671e-06
1.02752e-05
1.50708e-05
1.96849e-05
2.41288e-05
2.84134e-05
3.25509e-05
3.65534e-05
4.04319e-05
4.41959e-05
4.78534e-05
5.14111e-05
5.48743e-05
5.82478e-05
6.15294e-05
6.47185e-05
6.78283e-05
7.0861e-05
7.38183e-05
7.67015e-05
7.95116e-05
8.22491e-05
8.4904e-05
8.74883e-05
9.00023e-05
9.24458e-05
9.48186e-05
9.71205e-05
9.9351e-05
0.00010151
0.000103596
0.000105609
0.000107548
0.000109413
0.0001112
0.000112911
0.000114546
0.000116104
0.000117583
0.000118984
0.000120302
0.000121538
0.000122691
0.000123762
0.000124749
0.000125652
0.000126469
0.000127195
0.000127828
0.000128372
0.000128827
0.000129192
0.000129467
0.000129656
0.00012973
0.000129707
0.000129596
0.000129398
0.000129082
0.00012866
0.000128153
0.000127547
0.000126806
0.000125984
0.000125062
0.000123997
0.000122859
0.000121589
0.0001202
0.000118743
0.000117096
0.00011539
0.000113529
0.000111558
0.00010948
0.000107235
0.000104926
0.000102397
9.98254e-05
9.7017e-05
9.41458e-05
9.10654e-05
8.78737e-05
8.45049e-05
8.09664e-05
7.72914e-05
7.33723e-05
6.93719e-05
6.50296e-05
6.05769e-05
5.82217e-05
5.58665e-05
5.34432e-05
5.08966e-05
4.83499e-05
4.57386e-05
4.29936e-05
4.02486e-05
3.73948e-05
3.44483e-05
3.14943e-05
2.83488e-05
2.52033e-05
2.18964e-05
1.85601e-05
1.50533e-05
1.14705e-05
7.77318e-06
5.88521e-06
3.95424e-06
1.99428e-06
0
)


113
(
0
5.76566e-07
1.13936e-06
1.68785e-06
2.22355e-06
2.74621e-06
3.25562e-06
3.75179e-06
4.23489e-06
4.70515e-06
5.1628e-06
5.60807e-06
6.04116e-06
6.46222e-06
6.8714e-06
7.26796e-06
7.65135e-06
8.02313e-06
8.38341e-06
8.73225e-06
9.06968e-06
9.39575e-06
9.71045e-06
1.00121e-05
1.03027e-05
1.05821e-05
1.08505e-05
1.11078e-05
1.13541e-05
1.15893e-05
1.18136e-05
1.20269e-05
1.22292e-05
1.24207e-05
1.26012e-05
1.27706e-05
1.29291e-05
1.3077e-05
1.32141e-05
1.33406e-05
1.34565e-05
1.35614e-05
1.36555e-05
1.37391e-05
1.38121e-05
1.38745e-05
1.39265e-05
1.39681e-05
1.39984e-05
1.40178e-05
1.40267e-05
1.4025e-05
1.4013e-05
1.39908e-05
1.39587e-05
1.39138e-05
1.38581e-05
1.37927e-05
1.37178e-05
1.36302e-05
1.35312e-05
1.34232e-05
1.33048e-05
1.31721e-05
1.30312e-05
1.28799e-05
1.27141e-05
1.25408e-05
1.23543e-05
1.2156e-05
1.1951e-05
1.17274e-05
1.1498e-05
1.12539e-05
1.09994e-05
1.07347e-05
1.04548e-05
1.0169e-05
9.86343e-06
9.55422e-06
9.22448e-06
8.88951e-06
8.53713e-06
8.17591e-06
7.80063e-06
7.41259e-06
7.01427e-06
6.59874e-06
6.17747e-06
5.73375e-06
5.28333e-06
5.05032e-06
4.8173e-06
4.58051e-06
4.33687e-06
4.09324e-06
3.84633e-06
3.59267e-06
3.339e-06
3.08033e-06
2.81739e-06
2.55414e-06
2.28287e-06
2.0116e-06
1.73415e-06
1.45557e-06
1.17096e-06
8.83849e-07
5.93034e-07
4.46401e-07
2.98484e-07
1.49727e-07
0
)

)


10
(

113
(
0
1.92607e-33
5.06692e-33
9.00184e-33
1.37565e-32
1.97548e-32
2.816e-32
4.07264e-32
6.01622e-32
9.02296e-32
1.36807e-31
2.11917e-31
3.43e-31
5.89231e-31
1.13154e-30
2.77333e-30
8.07e-30
2.57077e-29
7.49333e-29
2.72267e-28
1.34985e-27
7.41e-27
4.36667e-26
2.32538e-25
8.70231e-25
6.9985e-24
5.87667e-23
5.13342e-22
4.625e-21
3.69333e-20
2.54267e-19
5.36836e-18
1.18167e-16
2.412e-15
4.405e-14
7.23091e-13
9.06818e-12
8.16364e-11
5.05e-10
4.40955e-09
2.80364e-08
1.4104e-07
5.09818e-07
1.5354e-06
3.81e-06
8.11364e-06
1.56636e-05
2.74333e-05
4.40333e-05
6.77e-05
0.000101008
0.000148917
0.000211769
0.000287429
0.000379571
0.000492857
0.000619714
0.000759
0.000898333
0.00103112
0.00115737
0.00126563
0.0013625
0.0014375
0.00148471
0.00152
0.00153111
0.00153667
0.00152
0.00149667
0.00146333
0.00142474
0.00138263
0.00133316
0.00128053
0.00123
0.00118
0.001122
0.001062
0.0010056
0.0009501
0.000893
0.0008355
0.000776842
0.000717895
0.0006634
0.0006094
0.000553
0.000496722
0.000443944
0.000391824
0.000366529
0.000341235
0.000316312
0.000292875
0.000269438
0.000246
0.000224333
0.000202667
0.000181
0.000158917
0.000136833
0.000116573
9.75273e-05
7.91889e-05
6.19111e-05
4.56571e-05
3.08167e-05
1.89e-05
1.34e-05
7.615e-06
3.135e-06
0
)


113
(
0
1.94639e-25
7.37699e-24
1.28029e-22
1.44884e-21
1.26252e-20
1.12862e-19
8.91395e-19
5.65262e-18
3.84019e-17
2.13764e-16
1.02871e-15
4.19639e-15
1.47168e-14
5.38366e-14
1.96746e-13
6.96468e-13
2.28061e-12
5.88883e-12
1.60518e-11
4.83085e-11
1.24166e-10
3.0077e-10
6.92321e-10
1.50376e-09
3.45406e-09
7.48118e-09
1.53926e-08
3.01166e-08
5.60834e-08
1.04189e-07
1.92076e-07
3.48756e-07
6.07605e-07
1.01396e-06
1.6528e-06
2.62478e-06
4.09648e-06
6.24404e-06
9.44259e-06
1.39641e-05
2.01757e-05
2.87001e-05
3.99258e-05
5.47653e-05
7.36562e-05
9.73817e-05
0.000126762
0.000161888
0.00020343
0.000253942
0.000310882
0.00037497
0.000445116
0.00052192
0.000603987
0.000688819
0.000775823
0.000862799
0.000947475
0.00102985
0.00110377
0.00117274
0.00123237
0.00128042
0.00132349
0.00134769
0.00136809
0.00137333
0.0013718
0.00136009
0.00133977
0.00131373
0.00127978
0.00124245
0.00119857
0.00115305
0.00110324
0.00105235
0.000998993
0.000945015
0.00088987
0.000834433
0.000778718
0.000722933
0.000667612
0.000612343
0.000558114
0.000504174
0.000451798
0.000400082
0.000374993
0.000349905
0.000325067
0.000301232
0.000277398
0.000253563
0.000231123
0.000208683
0.000186243
0.000165273
0.000144304
0.000124301
0.000104943
8.63011e-05
6.87315e-05
5.22426e-05
3.67884e-05
2.25911e-05
1.63446e-05
1.0338e-05
5.01025e-06
0
)


113
(
0
2.2909e-11
8.46485e-11