/*--------------------------------*- C++ -*----------------------------------*\
| =========                 |                                                 |
| \\      /  F ield         | OpenFOAM: The Open Source CFD Toolbox           |
|  \\    /   O peration     | Version:  2.3.0                                 |
|   \\  /    A nd           | Web:      www.OpenFOAM.org                      |
|    \\/     M anipulation  |                                                 |
\*---------------------------------------------------------------------------*/
FoamFile
{
    version     2.0;
    format      ascii;
    class       dictionary;
    location    "constant";
    object      CH2(S);
}
// * * * * * * * * * * * * * * * * * * * * * * * * * * * * * * * * * * * * * //

CH2(S)_table
13
(

10
(

113
(
0
1.69583e-35
2.67048e-35
9.0816e-35
2.03079e-34
4.76857e-34
1.36257e-33
1.07758e-32
1.01941e-31
4.12411e-31
2.64685e-30
1.59679e-29
3.8e-29
2.10327e-28
7.85155e-28
1.93919e-27
7.97613e-27
2.27591e-26
7.42835e-26
3.64313e-25
8.65847e-25
6.4499e-24
3.09012e-23
1.07444e-22
6.42654e-22
1.5713e-21
9.13652e-21
7.32919e-20
2.18882e-19
8.02259e-18
1.75077e-16
9.34014e-16
2.9877e-14
1.14568e-13
2.04796e-12
2.34934e-11
7.08035e-11
5.95485e-10
2.05335e-09
5.80652e-09
1.38392e-08
2.37851e-08
3.36609e-08
3.95078e-08
4.14838e-08
3.92266e-08
3.6076e-08
3.22212e-08
2.85449e-08
2.52476e-08
2.22182e-08
1.94909e-08
1.71187e-08
1.49833e-08
1.32299e-08
1.16563e-08
1.03951e-08
9.26144e-09
8.40333e-09
7.66903e-09
7.10657e-09
6.64943e-09
6.27692e-09
5.98252e-09
5.71204e-09
5.48056e-09
5.23642e-09
4.94743e-09
4.65273e-09
4.22091e-09
3.78909e-09
3.23348e-09
2.6543e-09
2.08243e-09
1.51486e-09
1.03742e-09
6.89647e-10
3.78358e-10
2.45173e-10
1.11987e-10
6.80498e-11
3.29396e-11
1.55425e-11
8.10885e-12
2.98589e-12
1.63298e-12
4.53399e-13
2.5606e-13
5.87202e-14
3.00769e-14
6.6511e-15
3.13894e-15
2.21649e-15
1.29404e-15
3.71592e-16
1.75252e-16
1.17218e-16
5.91843e-17
1.6047e-17
1.12147e-17
6.38241e-18
2.05066e-18
1.38946e-18
7.28269e-19
2.99598e-19
1.66867e-19
6.15519e-20
2.6737e-20
7.79321e-21
2.7028e-21
9.878e-22
1.24905e-22
0
)


113
(
0
1.12031e-25
4.46442e-24
1.04826e-22
1.01672e-21
9.01248e-21
4.86085e-20
4.06901e-19
2.64795e-18
8.99032e-18
4.7215e-17
2.35476e-16
5.41623e-16
2.63885e-15
8.8157e-15
2.08633e-14
7.78405e-14
1.80185e-13
4.49188e-13
1.20086e-12
2.38056e-12
6.05679e-12
1.2046e-11
2.3829e-11
4.81217e-11
8.03482e-11
1.56534e-10
2.68433e-10
4.31723e-10
7.16031e-10
1.08212e-09
1.64204e-09
2.40258e-09
3.29957e-09
4.59805e-09
6.07901e-09
7.80184e-09
9.8279e-09
1.19581e-08
1.42255e-08
1.64559e-08
1.8631e-08
2.05223e-08
2.21161e-08
2.3424e-08
2.40898e-08
2.4549e-08
2.4325e-08
2.38803e-08
2.29663e-08
2.18427e-08
2.04828e-08
1.90236e-08
1.74982e-08
1.6004e-08
1.45243e-08
1.31851e-08
1.19033e-08
1.07925e-08
9.75838e-09
8.87198e-09
8.07609e-09
7.3761e-09
6.76464e-09
6.19729e-09
5.70191e-09
5.21914e-09
4.78109e-09
4.34397e-09
3.92896e-09
3.51395e-09
3.11219e-09
2.71296e-09
2.33559e-09
1.97108e-09
1.63196e-09
1.32941e-09
1.04079e-09
8.2019e-10
5.99595e-10
4.54349e-10
3.16555e-10
2.2083e-10
1.4877e-10
9.21258e-11
6.06326e-11
3.21539e-11
2.07582e-11
9.36252e-12
5.77789e-12
2.43485e-12
1.71294e-12
1.2909e-12
8.68871e-13
4.46838e-13
3.04863e-13
2.16233e-13
1.27602e-13
5.89774e-14
4.17968e-14
2.46163e-14
9.13388e-15
6.1051e-15
3.07632e-15
1.14114e-15
5.97822e-16
1.76898e-16
7.07013e-17
1.84725e-17
6.93253e-18
3.13901e-18
8.65487e-19
0
)


113
(
0
6.97148e-14
2.38077e-13
6.07445e-13
1.2973e-12
2.46319e-12
4.36203e-12
8.16673e-12
1.36663e-11
2.08505e-11
3.25191e-11
4.93005e-11
7.00992e-11
1.04422e-10
1.46592e-10
2.00051e-10
2.73507e-10
3.59514e-10
4.82392e-10
6.26555e-10
7.89592e-10
1.00353e-09
1.24828e-09
1.56466e-09
1.9097e-09
2.27273e-09
2.72769e-09
3.22255e-09
3.77482e-09
4.38207e-09
5.01725e-09
5.70584e-09
6.43862e-09
7.20009e-09
7.98296e-09
8.7727e-09
9.57153e-09
1.03596e-08
1.11335e-08
1.18745e-08
1.25632e-08
1.32163e-08
1.37805e-08
1.42804e-08
1.47185e-08
1.50247e-08
1.52899e-08
1.54261e-08
1.55034e-08
1.5456e-08
1.53291e-08
1.51127e-08
1.48071e-08
1.44419e-08
1.39851e-08
1.34852e-08
1.29455e-08
1.23895e-08
1.177e-08
1.11219e-08
1.0479e-08
9.83926e-09
9.20051e-09
8.5627e-09
7.93343e-09
7.31811e-09
6.71479e-09
6.15404e-09
5.59559e-09
5.09231e-09
4.58904e-09
4.13986e-09
3.70099e-09
3.30263e-09
2.92808e-09
2.57818e-09
2.26378e-09
1.95936e-09
1.70374e-09
1.44811e-09
1.24273e-09
1.04231e-09
8.73155e-10
7.21583e-10
5.86264e-10
4.77463e-10
3.73653e-10
2.98118e-10
2.22584e-10
1.72979e-10
1.24177e-10
1.06925e-10
9.19299e-11
7.69352e-11
6.19405e-11
5.23974e-11
4.38927e-11
3.53881e-11
2.78523e-11
2.28082e-11
1.77641e-11
1.29954e-11
1.02464e-11
7.49742e-12
5.27996e-12
3.73901e-12
2.37766e-12
1.47815e-12
7.99951e-13
5.24582e-13
3.26578e-13
1.53405e-13
0
)


113
(
0
1.33109e-11
3.01496e-11
5.30704e-11
8.26683e-11
1.19629e-10
1.65532e-10
2.23289e-10
2.91054e-10
3.68078e-10
4.63349e-10
5.71381e-10
6.89442e-10
8.38143e-10
9.96436e-10
1.16853e-09
1.37019e-09
1.58424e-09
1.8227e-09
2.08029e-09
2.35485e-09
2.63729e-09
2.93249e-09
3.26155e-09
3.60017e-09
3.94428e-09
4.2934e-09
4.66413e-09
5.06595e-09
5.46114e-09
5.85945e-09
6.27575e-09
6.67691e-09
7.06814e-09
7.44669e-09
7.82489e-09
8.2026e-09
8.55036e-09
8.88561e-09
9.20137e-09
9.4935e-09
9.76986e-09
1.00083e-08
1.02238e-08
1.04172e-08
1.05627e-08
1.06936e-08
1.07808e-08
1.08463e-08
1.08656e-08
1.08551e-08
1.08108e-08
1.07151e-08
1.05852e-08
1.04459e-08
1.03022e-08
1.01101e-08
9.8982e-09
9.62391e-09
9.32158e-09
9.0287e-09
8.74161e-09
8.42238e-09
8.0735e-09
7.72048e-09
7.36074e-09
6.99635e-09
6.6155e-09
6.2354e-09
5.87345e-09
5.5115e-09
5.15416e-09
4.79769e-09
4.44742e-09
4.1008e-09
3.76569e-09
3.44716e-09
3.13575e-09
2.8591e-09
2.58244e-09
2.32842e-09
2.07663e-09
1.84746e-09
1.63102e-09
1.42644e-09
1.2412e-09
1.06184e-09
9.15744e-10
7.69653e-10
6.51457e-10
5.34125e-10
4.85334e-10
4.39661e-10
3.93988e-10
3.48315e-10
3.11615e-10
2.76625e-10
2.41634e-10
2.09004e-10
1.82446e-10
1.55888e-10
1.30102e-10
1.09979e-10
8.98563e-11
7.18188e-11
5.6435e-11
4.19704e-11
2.98693e-11
1.9063e-11
1.4027e-11
9.37785e-12
4.76151e-12
0
)


113
(
0
7.18153e-11
1.43428e-10
2.21981e-10
3.09118e-10
4.05357e-10
5.11757e-10
6.29803e-10
7.56462e-10
8.90731e-10
1.03811e-09
1.1934e-09
1.35488e-09
1.53012e-09
1.71071e-09
1.89899e-09
2.09688e-09
2.29898e-09
2.50994e-09
2.72567e-09
2.94563e-09
3.17198e-09
3.40034e-09
3.63241e-09
3.87365e-09
4.12026e-09
4.37771e-09
4.62354e-09
4.85263e-09
5.10658e-09
5.35233e-09
5.54385e-09
5.75928e-09
5.98997e-09
6.21908e-09
6.41629e-09
6.57122e-09
6.75422e-09
6.9306e-09
7.07565e-09
7.21658e-09
7.35273e-09
7.46737e-09
7.57048e-09
7.66253e-09
7.73659e-09
7.80376e-09
7.84288e-09
7.87693e-09
7.9002e-09
7.90561e-09
7.89088e-09
7.86192e-09
7.82346e-09
7.76924e-09
7.7076e-09
7.61022e-09
7.49825e-09
7.3777e-09
7.25329e-09
7.11793e-09
6.97587e-09
6.81433e-09
6.63481e-09
6.44577e-09
6.24119e-09
6.03659e-09
5.83193e-09
5.6277e-09
5.43358e-09
5.23945e-09
4.9948e-09
4.74052e-09
4.47555e-09
4.20431e-09
3.96639e-09
3.77643e-09
3.58053e-09
3.35569e-09
3.13084e-09
2.91372e-09
2.69736e-09
2.48854e-09
2.28395e-09
2.08485e-09
1.89468e-09
1.70697e-09
1.53315e-09
1.35933e-09
1.20241e-09
1.046e-09
9.74488e-10
9.05088e-10
8.35687e-10
7.66287e-10
7.04024e-10
6.43119e-10
5.82215e-10
5.23516e-10
4.70488e-10
4.1746e-10
3.65261e-10
3.19134e-10
2.73008e-10
2.29259e-10
1.88536e-10
1.48761e-10
1.11421e-10
7.48704e-11
5.67779e-11
3.84545e-11
1.96992e-11
0
)


113
(
0
1.29417e-10
2.49026e-10
3.66549e-10
4.8566e-10
6.07776e-10
7.33969e-10
8.65159e-10
9.99968e-10
1.13792e-09
1.28091e-09
1.42655e-09
1.57427e-09
1.72587e-09
1.87867e-09
2.03319e-09
2.18923e-09
2.34581e-09
2.50314e-09
2.66039e-09
2.81758e-09
2.97374e-09
3.12923e-09
3.28315e-09
3.43509e-09
3.58585e-09
3.73268e-09
3.8775e-09
4.01944e-09
4.15681e-09
4.29166e-09
4.42137e-09
4.54664e-09
4.66787e-09
4.72967e-09
4.80975e-09
4.91405e-09
5.0107e-09
5.10344e-09
5.18924e-09
5.26821e-09
5.34286e-09
5.40839e-09
5.5312e-09
5.70904e-09
5.76962e-09
5.80974e-09
5.86506e-09
5.90657e-09
5.91873e-09
5.91706e-09
5.89978e-09
5.87661e-09
5.84951e-09
5.86048e-09
5.88935e-09
5.75098e-09
5.54429e-09
5.43604e-09
5.37202e-09
5.29912e-09
5.22079e-09
5.13534e-09
5.04334e-09
4.94649e-09
4.84171e-09
4.73908e-09
4.6441e-09
4.54775e-09
4.41871e-09
4.28967e-09
4.15333e-09
4.0156e-09
3.87334e-09
3.72842e-09
3.58121e-09
3.43071e-09
3.27955e-09
3.12515e-09
2.97076e-09
2.81446e-09
2.65797e-09
2.50132e-09
2.34458e-09
2.18845e-09
2.03332e-09
1.87871e-09
1.72702e-09
1.57532e-09
1.42858e-09
1.28199e-09
1.21116e-09
1.14111e-09
1.07105e-09
1.001e-09
9.33985e-10
8.6755e-10
8.01116e-10
7.35668e-10
6.72757e-10
6.09846e-10
5.47269e-10
4.87141e-10
4.27013e-10
3.67482e-10
3.08712e-10
2.49813e-10
1.90582e-10
1.30002e-10
9.92546e-11
6.72379e-11
3.43529e-11
0
)


113
(
0
1.43751e-10
2.75193e-10
3.98827e-10
5.18179e-10
6.34887e-10
7.49886e-10
8.63947e-10
9.77644e-10
1.0911e-09
1.20432e-09
1.31738e-09
1.43031e-09
1.54271e-09
1.65474e-09
1.76624e-09
1.87669e-09
1.98658e-09
2.09501e-09
2.20228e-09
2.30853e-09
2.41243e-09
2.51083e-09
2.5943e-09
2.68456e-09
2.77856e-09
2.86853e-09
2.95668e-09
3.04222e-09
3.12396e-09
3.20371e-09
3.2795e-09
3.35207e-09
3.42247e-09
3.48747e-09
3.55001e-09
3.6093e-09
3.66357e-09
3.71532e-09
3.76263e-09
3.80566e-09
3.84599e-09
3.88068e-09
3.91194e-09
3.93991e-09
3.96192e-09
3.98199e-09
3.99547e-09
4.00648e-09
4.01223e-09
4.01427e-09
4.01212e-09
4.00514e-09
3.99494e-09
3.97916e-09
3.96076e-09
3.93645e-09
3.90973e-09
3.87723e-09
3.84213e-09
3.80186e-09
3.75843e-09
3.71072e-09
3.65906e-09
3.60436e-09
3.54469e-09
3.48332e-09
3.41593e-09
3.34825e-09
3.27352e-09
3.19878e-09
3.11825e-09
3.03661e-09
2.95096e-09
2.86295e-09
2.77257e-09
2.67877e-09
2.58689e-09
2.50441e-09
2.42193e-09
2.31791e-09
2.21177e-09
2.10365e-09
1.99441e-09
1.88432e-09
1.77282e-09
1.66111e-09
1.5482e-09
1.43528e-09
1.32169e-09
1.20807e-09
1.15116e-09
1.09421e-09
1.03726e-09
9.8031e-10
9.23195e-10
8.66048e-10
8.08901e-10
7.51585e-10
6.93834e-10
6.36083e-10
5.78168e-10
5.19047e-10
4.59926e-10
3.99771e-10
3.383e-10
2.75931e-10
2.11252e-10
1.44233e-10
1.09994e-10
7.42905e-11
3.77723e-11
0
)


113
(
0
1.16931e-10
2.25377e-10
3.26782e-10
4.23049e-10
5.15132e-10
6.0342e-10
6.88194e-10
7.70725e-10
8.51371e-10
9.29152e-10
1.00537e-09
1.08036e-09
1.15273e-09
1.22408e-09
1.29396e-09
1.36185e-09
1.42883e-09
1.49374e-09
1.55731e-09
1.61969e-09
1.67972e-09
1.73881e-09
1.79591e-09
1.85124e-09
1.90553e-09
1.95703e-09
2.00732e-09
2.05588e-09
2.10204e-09
2.14694e-09
2.1894e-09
2.22992e-09
2.26913e-09
2.30516e-09
2.33977e-09
2.37248e-09
2.40234e-09
2.43078e-09
2.45671e-09
2.48025e-09
2.50229e-09
2.52122e-09
2.53827e-09
2.55351e-09
2.56551e-09
2.57644e-09
2.5838e-09
2.58982e-09
2.593e-09
2.59417e-09
2.59307e-09
2.58935e-09
2.58389e-09
2.5754e-09
2.56548e-09
2.55233e-09
2.53787e-09
2.52022e-09
2.50113e-09
2.47917e-09
2.45544e-09
2.4293e-09
2.40093e-09
2.3708e-09
2.33782e-09
2.30383e-09
2.26632e-09
2.22862e-09
2.18667e-09
2.14472e-09
2.09916e-09
2.0529e-09
2.00404e-09
1.95364e-09
1.90161e-09
1.84724e-09
1.79222e-09
1.73403e-09
1.67584e-09
1.61434e-09
1.55251e-09
1.48846e-09
1.42316e-09
1.35658e-09
1.28794e-09
1.21879e-09
1.14684e-09
1.07489e-09
9.9964e-10
9.24287e-10
8.85209e-10
8.45689e-10
8.06168e-10
7.66647e-10
7.25369e-10
6.83755e-10
6.42142e-10
5.99847e-10
5.55796e-10
5.11745e-10
4.67357e-10
4.20491e-10
3.73624e-10
3.25399e-10
2.75443e-10
2.24618e-10
1.71558e-10
1.16673e-10
8.86744e-11
5.96911e-11
3.02105e-11
0
)


113
(
0
6.6293e-11
1.29154e-10
1.88738e-10
2.45604e-10
3.0002e-10
3.51987e-10
4.01418e-10
4.49103e-10
4.95279e-10
5.39016e-10
5.81361e-10
6.22614e-10
6.61523e-10
6.99526e-10
7.36225e-10
7.71246e-10
8.05508e-10
8.3811e-10
8.697e-10
9.00394e-10
9.29437e-10
9.57838e-10
9.84928e-10
1.01092e-09
1.03627e-09
1.05997e-09
1.08301e-09
1.10507e-09
1.12585e-09
1.14598e-09
1.16485e-09
1.18275e-09
1.20001e-09
1.21574e-09
1.2308e-09
1.24498e-09
1.25784e-09
1.27006e-09
1.28115e-09
1.29117e-09
1.30054e-09
1.30854e-09
1.31573e-09
1.32213e-09
1.32714e-09
1.3317e-09
1.33473e-09
1.33719e-09
1.33844e-09
1.33884e-09
1.33828e-09
1.33662e-09
1.33421e-09
1.33051e-09
1.32621e-09
1.32053e-09
1.31429e-09
1.30667e-09
1.29844e-09
1.28896e-09
1.2787e-09
1.26737e-09
1.25506e-09
1.24195e-09
1.22755e-09
1.21268e-09
1.19616e-09
1.17957e-09
1.16091e-09
1.14226e-09
1.12178e-09
1.10096e-09
1.07874e-09
1.05572e-09
1.03176e-09
1.00646e-09
9.80774e-10
9.53136e-10
9.25499e-10
8.95631e-10
8.65542e-10
8.33803e-10
8.01135e-10
7.67428e-10
7.32027e-10
6.96187e-10
6.57865e-10
6.19543e-10
5.78182e-10
5.36728e-10
5.14729e-10
4.92329e-10
4.69928e-10
4.47528e-10
4.23648e-10
3.99486e-10
3.75325e-10
3.50654e-10
3.24676e-10
2.98698e-10
2.72503e-10
2.44715e-10
2.16926e-10
1.88388e-10
1.58895e-10
1.28985e-10
9.8003e-11
6.62419e-11
5.01271e-11
3.36272e-11
1.69442e-11
0
)


113
(
0
5.68596e-12
1.12351e-11
1.66406e-11
2.19159e-11
2.7065e-11
3.20786e-11
3.69386e-11
4.16849e-11
4.63305e-11
5.08008e-11
5.51631e-11
5.94407e-11
6.35235e-11
6.75262e-11
7.14139e-11
7.51458e-11
7.88057e-11
8.23047e-11
8.57022e-11
8.90097e-11
9.21471e-11
9.52171e-11
9.81493e-11
1.00964e-10
1.0371e-10
1.06278e-10
1.08773e-10
1.11163e-10
1.13412e-10
1.1559e-10
1.1763e-10
1.19566e-10
1.2143e-10
1.23127e-10
1.24752e-10
1.2628e-10
1.27666e-10
1.28982e-10
1.30176e-10
1.31256e-10
1.32265e-10
1.33128e-10
1.33903e-10
1.34594e-10
1.35137e-10
1.35632e-10
1.35964e-10
1.36236e-10
1.3638e-10
1.36433e-10
1.36385e-10
1.36218e-10
1.35973e-10
1.35591e-10
1.35145e-10
1.34551e-10
1.33897e-10
1.33097e-10
1.3223e-10
1.31228e-10
1.30143e-10
1.28943e-10
1.27635e-10
1.26241e-10
1.24705e-10
1.23119e-10
1.21352e-10
1.19576e-10
1.17573e-10
1.1557e-10
1.13366e-10
1.11123e-10
1.08727e-10
1.0624e-10
1.03652e-10
1.00916e-10
9.8138e-11
9.51483e-11
9.21586e-11
8.8932e-11
8.56821e-11
8.22627e-11
7.8748e-11
7.51319e-11
7.13501e-11
6.75281e-11
6.34789e-11
5.94296e-11
5.51241e-11
5.08107e-11
4.85569e-11
4.62724e-11
4.39879e-11
4.17034e-11
3.93178e-11
3.69129e-11
3.45081e-11
3.20723e-11
2.95573e-11
2.70422e-11
2.45155e-11
2.1903e-11
1.92905e-11
1.6642e-11
1.39475e-11
1.12349e-11
8.47562e-12
5.68502e-12
4.28038e-12
2.86115e-12
1.43524e-12
0
)

)


10
(

113
(
0
1.1594e-33
1.93766e-32
1.69766e-31
6.42326e-31
1.85194e-30
5.60271e-30
2.09905e-29
1.05204e-28
6.12501e-28
3.35613e-27
1.57767e-26
6.30191e-26
2.17452e-25
6.56831e-25
1.91846e-24
6.18596e-24
1.9217e-23
5.82924e-23
1.73238e-22
5.0231e-22
1.40789e-21
3.76598e-21
1.21661e-20
3.99902e-20
1.38243e-19
5.44485e-19
2.87196e-18
2.26436e-17
2.31941e-16
2.50247e-15
2.53192e-14
2.29923e-13
1.84015e-12
1.33057e-11
9.7943e-11
6.12842e-10
3.00937e-09
1.13781e-08
3.2753e-08
7.21043e-08
1.23655e-07
1.7023e-07
1.9792e-07
2.03671e-07
1.92811e-07
1.73515e-07
1.52499e-07
1.33836e-07
1.18761e-07
1.06775e-07
9.71306e-08
8.89997e-08
8.16997e-08
7.47109e-08
6.75378e-08
5.99862e-08
5.21348e-08
4.40714e-08
3.60279e-08
2.85001e-08
2.15915e-08
1.5575e-08
1.10471e-08
7.34598e-09
4.65196e-09
3.00021e-09
1.74222e-09
1.0512e-09
6.1187e-10
3.18472e-10
1.97813e-10
1.01928e-10
6.01427e-11
3.20419e-11
1.74087e-11
9.75808e-12
4.80952e-12
2.88739e-12
1.35215e-12
8.36965e-13
4.03317e-13
2.41094e-13
1.2152e-13
6.97842e-14
3.7288e-14
2.02808e-14
1.16804e-14
5.88228e-15
3.76932e-15
2.06302e-15
1.65796e-15
1.2529e-15
9.29491e-16
7.53791e-16
5.78092e-16
4.31909e-16
3.46751e-16
2.61593e-16
1.97928e-16
1.52572e-16
1.07956e-16
8.20626e-17
5.61692e-17
3.91721e-17
2.37694e-17
1.44506e-17
7.12819e-18
2.5843e-18
1.13099e-18
4.05726e-19
5.75848e-20
0
)


113
(
0
6.46405e-25
2.01581e-23
4.78468e-22
5.04971e-21
3.67418e-20
2.80989e-19
1.85895e-18
1.03874e-17
5.28322e-17
2.50898e-16
1.01841e-15
3.85914e-15
1.31701e-14
3.95146e-14
1.13754e-13
3.44921e-13
9.59965e-13
2.47926e-12
5.97832e-12
1.35231e-11
2.88361e-11
5.84095e-11
1.21252e-10
2.37825e-10
4.4262e-10
7.88812e-10
1.35486e-09
2.25513e-09
3.62276e-09
5.59656e-09
8.35365e-09
1.20784e-08
1.69601e-08
2.31188e-08
3.06449e-08
3.94565e-08
4.9386e-08
6.01289e-08
7.12948e-08
8.24149e-08
9.28954e-08
1.02333e-07
1.10148e-07
1.16062e-07
1.19863e-07
1.21439e-07
1.20896e-07
1.18345e-07
1.14077e-07
1.08465e-07
1.01843e-07
9.45443e-08
8.68466e-08
7.89679e-08
7.11457e-08
6.35396e-08
5.62026e-08
4.9171e-08
4.26332e-08
3.65926e-08
3.0964e-08
2.58265e-08
2.13845e-08
1.73488e-08
1.38161e-08
1.09545e-08
8.40864e-09
6.40554e-09
4.79876e-09
3.42176e-09
2.52177e-09
1.73076e-09
1.20891e-09
8.07424e-10
5.24403e-10
3.43916e-10
2.03105e-10
1.32585e-10
7.19651e-11
4.6141e-11
2.40643e-11
1.44634e-11
7.31936e-12
4.08364e-12
2.05922e-12
1.00994e-12
5.13129e-13
2.00468e-13
1.13813e-13
4.68606e-14
3.45763e-14
2.2292e-14
1.31556e-14
9.71359e-15
6.27157e-15
3.63516e-15
2.66431e-15
1.69346e-15
1.06988e-15
7.42121e-16
4.22294e-16
3.03321e-16
1.84348e-16
1.22598e-16
7.09918e-17
4.46958e-17
2.42846e-17
1.14577e-17
6.90271e-18
3.81809e-18
1.53433e-18
0
)


113
(
0
3.58188e-13
1.22625e-12
3.14884e-12
6.69383e-12
1.28624e-11
2.32387e-11
4.02044e-11
6.72172e-11
1.07273e-10
1.66059e-10
2.48587e-10
3.63177e-10
5.20377e-10
7.29299e-10
1.00222e-09
1.37216e-09
1.84464e-09
2.43183e-09
3.14916e-09
4.01395e-09
5.04701e-09
6.28384e-09
7.78829e-09
9.52903e-09
1.14892e-08
1.36814e-08
1.61163e-08
1.88096e-08
2.17773e-08
2.50139e-08
2.84899e-08
3.21617e-08
3.59665e-08
3.98005e-08
4.37054e-08
4.76408e-08
5.15147e-08
5.52936e-08
5.88969e-08
6.22693e-08
6.53405e-08
6.80531e-08
7.04159e-08
7.23361e-08
7.37955e-08
7.47731e-08
7.52343e-08
7.52413e-08
7.47587e-08
7.37671e-08
7.22839e-08
7.03762e-08
6.81033e-08
6.55067e-08
6.25664e-08
5.93684e-08
5.60007e-08
5.2512e-08
4.89298e-08
4.53111e-08
4.16898e-08
3.80874e-08
3.45908e-08
3.11862e-08
2.79073e-08
2.48609e-08
2.1943e-08
1.92676e-08
1.68117e-08
1.44829e-08
1.24942e-08
1.06072e-08
8.98301e-09
7.52425e-09
6.22832e-09
5.15125e-09
4.15887e-09
3.39953e-09
2.6795e-09
2.15383e-09
1.66555e-09
1.30175e-09
9.85648e-10
7.45407e-10
5.53224e-10
3.9973e-10
2.91694e-10
1.98811e-10
1.42979e-10
9.45159e-11
7.87265e-11
6.2937e-11
4.95904e-11
4.06629e-11
3.17354e-11
2.4166e-11
1.94045e-11
1.4643e-11
1.10398e-11
8.42342e-12
5.85229e-12
4.42742e-12
3.00255e-12
2.11668e-12
1.32711e-12
8.68868e-13
5.02469e-13
2.57319e-13
1.66343e-13
1.00379e-13
4.62467e-14
0
)


113
(
0
6.72683e-11
1.52321e-10
2.6847e-10
4.17917e-10
6.06237e-10
8.39526e-10
1.12375e-09
1.46458e-09
1.86726e-09
2.3366e-09
2.87707e-09
3.49211e-09
4.18702e-09
4.97112e-09
5.86553e-09
6.84293e-09
7.87676e-09
9.02142e-09
1.02654e-08
1.15873e-08
1.30006e-08
1.45123e-08
1.61365e-08
1.77933e-08
1.94828e-08
2.12444e-08
2.31221e-08
2.50406e-08
2.69227e-08
2.88269e-08
3.06935e-08
3.25334e-08
3.44363e-08
3.63232e-08
3.81547e-08
3.98794e-08
4.14888e-08
4.30324e-08
4.44734e-08
4.57848e-08
4.69752e-08
4.80215e-08
4.8907e-08
4.96612e-08
5.02526e-08
5.0683e-08
5.09073e-08
5.09498e-08
5.09047e-08
5.06498e-08
5.01916e-08
4.95655e-08
4.87996e-08
4.79082e-08
4.68315e-08
4.56075e-08
4.43023e-08
4.29353e-08
4.14452e-08
3.98492e-08
3.81705e-08
3.63973e-08
3.45981e-08
3.27964e-08
3.09962e-08
2.91803e-08
2.73587e-08
2.55294e-08
2.37404e-08
2.19747e-08
2.02905e-08
1.863e-08
1.70303e-08
1.54834e-08
1.39886e-08
1.2617e-08
1.12932e-08
1.01196e-08
8.97125e-09
7.94603e-09
6.95185e-09
6.06097e-09
5.22038e-09
4.45977e-09
3.78255e-09
3.17248e-09
2.66647e-09
2.19515e-09
1.81116e-09
1.45298e-09
1.30394e-09
1.15489e-09
1.01815e-09
9.03658e-10
7.89167e-10
6.83566e-10
5.96345e-10
5.09124e-10
4.33226e-10
3.66973e-10
3.01319e-10
2.50841e-10
2.00362e-10
1.59802e-10
1.21031e-10
9.0555e-11
6.30184e-11
3.95156e-11
2.89111e-11
1.91639e-11
9.66435e-12
0
)


113
(
0
3.57199e-10
7.1172e-10
1.10098e-09
1.53194e-09
2.00942e-09
2.5357e-09
3.11106e-09
3.73472e-09
4.40531e-09
5.12128e-09
5.881e-09
6.68274e-09
7.52478e-09
8.40522e-09
9.32452e-09
1.02816e-08
1.12693e-08
1.22849e-08
1.33253e-08
1.43875e-08
1.54682e-08
1.65637e-08
1.76712e-08
1.87904e-08
1.99221e-08
2.11063e-08
2.22263e-08
2.33144e-08
2.44428e-08
2.54738e-08
2.65253e-08
2.75664e-08
2.84738e-08
2.94529e-08
3.0374e-08
3.11796e-08
3.18744e-08
3.25648e-08
3.32909e-08
3.39775e-08
3.44516e-08
3.49237e-08
3.53226e-08
3.56678e-08
3.59341e-08
3.61344e-08
3.62645e-08
3.63144e-08
3.62903e-08
3.62279e-08
3.60545e-08
3.5802e-08
3.54865e-08
3.50801e-08
3.4659e-08
3.41762e-08
3.36169e-08
3.29765e-08
3.22342e-08
3.15118e-08
3.07596e-08
2.99346e-08
2.90705e-08
2.81847e-08
2.72725e-08
2.61872e-08
2.50888e-08
2.40462e-08
2.31264e-08
2.22778e-08
2.11745e-08
1.99998e-08
1.86429e-08
1.74595e-08
1.6447e-08
1.55008e-08
1.45803e-08
1.35923e-08
1.26011e-08
1.16514e-08
1.07143e-08
9.81864e-09
8.94662e-09
8.11216e-09
7.31433e-09
6.54601e-09
5.8293e-09
5.12979e-09
4.49889e-09
3.8885e-09
3.60718e-09
3.32587e-09
3.056e-09
2.80686e-09
2.55772e-09
2.31831e-09
2.09902e-09
1.87974e-09
1.675e-09
1.48266e-09
1.2912e-09
1.12224e-09
9.53273e-10
8.00503e-10
6.50657e-10
5.14544e-10
3.82709e-10
2.56034e-10
1.93684e-10
1.3099e-10
6.69484e-11
0
)


113
(
0
6.28818e-10
1.20688e-09
1.7744e-09
2.34863e-09
2.93738e-09
3.5446e-09
4.17154e-09
4.81773e-09
5.48173e-09
6.16172e-09
6.85573e-09
7.56181e-09
8.27805e-09
9.00258e-09
9.73389e-09
1.04698e-08
1.12079e-08
1.19463e-08
1.26834e-08
1.34174e-08
1.41467e-08
1.48695e-08
1.55825e-08
1.6285e-08
1.69755e-08
1.76524e-08
1.8314e-08
1.89588e-08
1.95851e-08
2.01915e-08
2.07764e-08
2.13385e-08
2.18655e-08
2.21613e-08
2.26417e-08
2.30946e-08
2.3519e-08
2.39142e-08
2.42793e-08
2.46137e-08
2.49157e-08
2.51853e-08
2.54979e-08
2.62228e-08
2.64461e-08
2.66303e-08
2.67794e-08
2.68869e-08
2.69139e-08
2.68993e-08
2.68423e-08
2.67181e-08
2.65499e-08
2.64027e-08
2.62442e-08
2.56581e-08
2.49788e-08
2.43723e-08
2.40277e-08
2.36515e-08
2.3251e-08
2.28231e-08
2.23603e-08
2.18783e-08
2.13727e-08
2.09095e-08
2.04216e-08
1.98399e-08
1.924e-08
1.86295e-08
1.79945e-08
1.73532e-08
1.66957e-08
1.60297e-08
1.53552e-08
1.46718e-08
1.3985e-08
1.32918e-08
1.25978e-08
1.19023e-08
1.12076e-08
1.05159e-08
9.82771e-09
9.14521e-09
8.4707e-09
7.80263e-09
7.149e-09
6.50019e-09
5.87466e-09
5.25726e-09
4.95806e-09
4.65886e-09
4.36484e-09
4.08017e-09
3.79551e-09
3.51563e-09
3.24564e-09
2.97566e-09
2.71302e-09
2.45662e-09
2.20064e-09
1.95527e-09
1.70989e-09
1.4705e-09
1.23216e-09
9.95902e-10
7.58192e-10
5.16742e-10
3.93791e-10
2.6686e-10
1.36189e-10
0
)


113
(
0
6.81797e-10
1.30255e-09
1.88553e-09
2.44762e-09
2.99625e-09
3.53648e-09
4.07169e-09
4.60387e-09
5.13408e-09
5.66268e-09
6.18964e-09
6.71469e-09
7.23737e-09
7.75715e-09
8.27308e-09
8.784e-09
9.28967e-09
9.7894e-09
1.02825e-08
1.07683e-08
1.12461e-08
1.17153e-08
1.20458e-08
1.24632e-08
1.28845e-08
1.32934e-08
1.36891e-08
1.40711e-08
1.44389e-08
1.47918e-08
1.51295e-08
1.54513e-08
1.57568e-08
1.60457e-08
1.6317e-08
1.65708e-08
1.6807e-08
1.70253e-08
1.72254e-08
1.74071e-08
1.75696e-08
1.7713e-08
1.78373e-08
1.79426e-08
1.80287e-08
1.80957e-08
1.81435e-08
1.81709e-08
1.8178e-08
1.8166e-08
1.81348e-08
1.80848e-08
1.80164e-08
1.79302e-08
1.78213e-08
1.76938e-08
1.75494e-08
1.7389e-08
1.72071e-08
1.70067e-08
1.67918e-08
1.65605e-08
1.63075e-08
1.60422e-08
1.57617e-08
1.54608e-08
1.515e-08
1.48216e-08
1.44786e-08
1.41272e-08
1.37544e-08
1.33755e-08
1.29809e-08
1.25764e-08
1.21622e-08
1.17351e-08
1.1303e-08
1.09167e-08
1.05282e-08
1.0056e-08
9.58166e-09
9.10006e-09
8.61577e-09
8.12721e-09
7.63619e-09
7.1432e-09
6.64869e-09
6.15368e-09
5.65866e-09
5.16402e-09
4.91715e-09
4.67028e-09
4.42365e-09
4.17748e-09
3.93131e-09
3.68514e-09
3.43898e-09
3.19282e-09
2.94584e-09
2.69816e-09
2.45033e-09
2.1988e-09
1.94727e-09
1.69009e-09
1.43185e-09
1.16441e-09
8.91251e-10
6.08562e-10
4.63385e-10
3.13198e-10
1.59131e-10
0
)


113
(
0
5.4214e-10
1.04352e-09
1.5117e-09
1.95583e-09
2.37958e-09
2.7859e-09
3.17742e-09
3.55624e-09
3.92401e-09
4.28195e-09
4.63096e-09
4.9717e-09
5.30463e-09
5.63008e-09
5.94776e-09
6.25737e-09
6.55987e-09
6.85523e-09
7.1434e-09
7.42428e-09
7.69774e-09
7.96361e-09
8.22054e-09
8.46961e-09
8.71064e-09
8.94345e-09
9.16787e-09
9.38371e-09
9.59079e-09
9.78894e-09
9.97801e-09
1.01578e-08
1.03282e-08
1.04891e-08
1.06401e-08
1.07813e-08
1.09126e-08
1.10342e-08
1.11457e-08
1.12472e-08
1.13382e-08
1.14189e-08
1.14894e-08
1.15497e-08
1.15997e-08
1.16394e-08
1.16689e-08
1.16874e-08
1.16952e-08
1.16926e-08
1.16798e-08
1.16569e-08
1.16241e-08
1.15817e-08
1.15269e-08
1.1462e-08
1.13879e-08
1.13049e-08
1.121e-08
1.11047e-08
1.09913e-08
1.08686e-08
1.07334e-08
1.0591e-08
1.04397e-08
1.02763e-08
1.01069e-08
9.92684e-09
9.73761e-09
9.5431e-09
9.3348e-09
9.12242e-09
8.8995e-09
8.66961e-09
8.43286e-09
8.18642e-09
7.93623e-09
7.67423e-09
7.4101e-09
7.13444e-09
6.85602e-09
6.56842e-09
6.27639e-09
5.97732e-09
5.67209e-09
5.3619e-09
5.04344e-09
4.72224e-09
4.38987e-09
4.05388e-09
3.88166e-09
3.70944e-09
3.53486e-09
3.35603e-09
3.17719e-09
2.99592e-09
2.80959e-09
2.62326e-09
2.43232e-09
2.23744e-09
2.0422e-09
1.8377e-09
1.6332e-09
1.4198e-09
1.20476e-09
9.79097e-10
7.48143e-10
5.08949e-10
3.86353e-10
2.6025e-10
1.31656e-10
0
)


113
(
0
3.02057e-10
5.88037e-10
8.58876e-10
1.11732e-09
1.36406e-09
1.5998e-09
1.82532e-09
2.0414e-09
2.24879e-09
2.44811e-09
2.6399e-09
2.82463e-09
3.00265e-09
3.17431e-09
3.33945e-09
3.49803e-09
3.65102e-09
3.79858e-09
3.94086e-09
4.07798e-09
4.21003e-09
4.33709e-09
4.45852e-09
4.57519e-09
4.68716e-09
4.79446e-09
4.89714e-09
4.99521e-09
5.08872e-09
5.17767e-09
5.26209e-09
5.34199e-09
5.41739e-09
5.4883e-09
5.55461e-09
5.61647e-09
5.6739e-09
5.72692e-09
5.77553e-09
5.81974e-09
5.85942e-09
5.89465e-09
5.92548e-09
5.95194e-09
5.97404e-09
5.99179e-09
6.00522e-09
6.01403e-09
6.01828e-09
6.0182e-09
6.01379e-09
6.00511e-09
5.99225e-09
5.97532e-09
5.95317e-09
5.92666e-09
5.89618e-09
5.8619e-09
5.82246e-09
5.77849e-09
5.73092e-09
5.67921e-09
5.6219e-09
5.56131e-09
5.49667e-09
5.42635e-09
5.35317e-09
5.27485e-09
5.19201e-09
5.10656e-09
5.01402e-09
4.9193e-09
4.81891e-09
4.71459e-09
4.60638e-09
4.49234e-09
4.37604e-09
4.25212e-09
4.12677e-09
3.99338e-09
3.85788e-09
3.7154e-09
3.56926e-09
3.41727e-09
3.25977e-09
3.09781e-09
2.92797e-09
2.7555e-09
2.57205e-09
2.38506e-09
2.28744e-09
2.18983e-09
2.09003e-09
1.98629e-09
1.88255e-09
1.77674e-09
1.66664e-09
1.55655e-09
1.44297e-09
1.32642e-09
1.20962e-09
1.08666e-09
9.63705e-10
8.35543e-10
7.06433e-10
5.71809e-10
4.3472e-10
2.93918e-10
2.22239e-10
1.49161e-10
7.51399e-11
0
)


113
(
0
2.55458e-11
5.0466e-11
7.47363e-11
9.84262e-11
1.21525e-10
1.44023e-10
1.65922e-10
1.87228e-10
2.07954e-10
2.28111e-10
2.47708e-10
2.66755e-10
2.8526e-10
3.03229e-10
3.2063e-10
3.37439e-10
3.53725e-10
3.69495e-10
3.84751e-10
3.99495e-10
4.1373e-10
4.27456e-10
4.40599e-10
4.53244e-10
4.65394e-10
4.77049e-10
4.88211e-10
4.98881e-10
5.09061e-10
5.18751e-10
5.27954e-10
5.3667e-10
5.44902e-10
5.5265e-10
5.59905e-10
5.66681e-10
5.72983e-10
5.78814e-10
5.84173e-10
5.89064e-10
5.93473e-10
5.97408e-10
6.00876e-10
6.03881e-10
6.06425e-10
6.08508e-10
6.10134e-10
6.11271e-10
6.11927e-10
6.12124e-10
6.11863e-10
6.11149e-10
6.09992e-10
6.08402e-10
6.06255e-10
6.03644e-10
6.00607e-10
5.97162e-10
5.93163e-10
5.88672e-10
5.83792e-10
5.78462e-10
5.72519e-10
5.66217e-10
5.59469e-10
5.52094e-10
5.44402e-10
5.36138e-10
5.27371e-10
5.18312e-10
5.08458e-10
4.9836e-10
4.87627e-10
4.76451e-10
4.64841e-10
4.52581e-10
4.40069e-10
4.26717e-10
4.13208e-10
3.98826e-10
3.84222e-10
3.68879e-10
3.53161e-10
3.36846e-10
3.19991e-10
3.027e-10
2.84682e-10
2.66421e-10
2.47211e-10
2.27719e-10
2.17643e-10
2.07568e-10
1.97334e-10
1.86811e-10
1.76288e-10
1.65627e-10
1.54682e-10
1.43737e-10
1.32581e-10
1.21246e-10
1.09898e-10
9.82125e-11
8.65272e-11
7.45822e-11
6.25901e-11
5.0345e-11
3.79946e-11
2.54891e-11
1.9185e-11
1.2827e-11
6.43384e-12
0
)

)


10
(

113
(
0
3.36431e-30
6.75385e-29
4.97605e-28
2.07152e-27
6.48118e-27
1.84108e-26
5.51264e-26
1.87089e-25
7.36339e-25
3.11588e-24
1.22942e-23
4.1925e-23
1.22123e-22
3.50354e-22
1.112e-21
3.355e-21
9.19692e-21
2.17583e-20
5.83417e-20
1.67231e-19
4.89e-19
1.506e-18
4.65308e-18
1.29685e-17
6.3825e-17
3.73042e-16
2.34783e-15
1.4165e-14
6.91833e-14
3.39017e-13
2.52927e-12
1.61367e-11
8.735e-11
4.14182e-10
1.77764e-09
6.41e-09
1.95455e-08
5.1e-08
1.18273e-07
2.22364e-07
3.56e-07
4.73455e-07
5.595e-07
5.92818e-07
5.79364e-07
5.31182e-07
4.65667e-07
3.975e-07
3.3e-07
2.75385e-07
2.22833e-07
1.77e-07
1.38714e-07
1.07286e-07
8.10571e-08
5.87e-08
4.02e-08
2.84667e-08
1.91625e-08
1.22875e-08
8.19125e-09
4.96063e-09
3.02938e-09
1.86118e-09
1.02e-09
6.78889e-10
3.78222e-10
2.39333e-10
1.342e-10
7.97e-11
4.62789e-11
2.69105e-11
1.61226e-11
9.01211e-12
5.642e-12
3.207e-12
2.0272e-12
1.1612e-12
7.412e-13
4.327e-13
2.814e-13
1.694e-13
1.11211e-13
6.64737e-14
4.6565e-14
2.9415e-14
2.035e-14
1.26317e-14
8.94833e-15
5.81765e-15
4.89706e-15
3.97647e-15
3.14313e-15
2.65875e-15
2.17437e-15
1.69e-15
1.42e-15
1.15e-15
8.8e-16
7.00833e-16
5.21667e-16
3.87e-16
2.82e-16
1.92044e-16
1.24656e-16
7.24571e-17
3.455e-17
1.33e-17
7.4e-18
2.4015e-18
3.8125e-19
0
)


113
(
0
6.76118e-24
2.04176e-22
3.00916e-21
2.801e-20
2.08999e-19
1.50393e-18
9.61311e-18
5.53613e-17
2.87936e-16
1.31891e-15
5.20243e-15
1.73558e-14
5.19658e-14
1.66067e-13
5.21834e-13
1.50294e-12
3.97534e-12
8.87593e-12
2.05819e-11
5.0038e-11
1.08673e-10
2.21682e-10
4.2632e-10
7.80057e-10
1.46196e-09
2.62646e-09
4.48315e-09
7.29916e-09
1.14023e-08
1.74654e-08
2.60299e-08
3.7639e-08
5.24786e-08
7.077e-08
9.29142e-08
1.18595e-07
1.47345e-07
1.78376e-07
2.10421e-07
2.41782e-07
2.71042e-07
2.96222e-07
3.16524e-07
3.30146e-07
3.36842e-07
3.36527e-07
3.29275e-07
3.15989e-07
2.97277e-07
2.73411e-07
2.47439e-07
2.20102e-07
1.92434e-07
1.65301e-07
1.4006e-07
1.16574e-07
9.50118e-08
7.72373e-08
6.14653e-08
4.7696e-08
3.72412e-08
2.80656e-08
2.10149e-08
1.56463e-08
1.09986e-08
8.16096e-09
5.56857e-09
3.95714e-09
2.64462e-09
1.78045e-09
1.17754e-09
7.48791e-10
4.84139e-10
2.89814e-10
1.87005e-10
1.07075e-10
6.70732e-11
3.70529e-11
2.2658e-11
1.21695e-11
7.27812e-12
3.78605e-12
2.19279e-12
1.07423e-12
6.51782e-13
3.0668e-13
1.81009e-13
8.65163e-14
5.32006e-14
2.65441e-14
2.09851e-14
1.5426e-14
1.05739e-14
8.54955e-15
6.5252e-15
4.50085e-15
3.64511e-15
2.78937e-15
1.93363e-15
1.52504e-15
1.11645e-15
8.1894e-16
5.95481e-16
4.0916e-16