/*--------------------------------*- C++ -*----------------------------------*\
| =========                 |                                                 |
| \\      /  F ield         | OpenFOAM: The Open Source CFD Toolbox           |
|  \\    /   O peration     | Version:  2.3.0                                 |
|   \\  /    A nd           | Web:      www.OpenFOAM.org                      |
|    \\/     M anipulation  |                                                 |
\*---------------------------------------------------------------------------*/
FoamFile
{
    version     2.0;
    format      ascii;
    class       dictionary;
    location    "constant";
    object      CH2;
}
// * * * * * * * * * * * * * * * * * * * * * * * * * * * * * * * * * * * * * //

CH2_table
13
(

10
(

113
(
0
1.36479e-32
3.5541e-32
4.3102e-32
8.63114e-32
1.17905e-31
2.30603e-31
2.98901e-30
2.26628e-29
7.74424e-29
3.95191e-28
1.76449e-27
3.96e-27
1.66896e-26
5.08882e-26
1.15981e-25
3.86669e-25
9.45902e-25
2.66298e-24
9.95031e-24
2.21773e-23
1.32937e-22
5.8042e-22
1.95511e-21
1.12796e-20
2.74236e-20
1.58604e-19
1.20981e-18
3.58497e-18
1.21263e-16
2.58152e-15
1.37459e-14
4.40842e-13
1.70214e-12
3.08091e-11
3.66525e-10
1.10868e-09
9.81684e-09
3.51089e-08
1.01438e-07
2.52968e-07
4.45118e-07
6.54435e-07
7.90593e-07
8.56461e-07
8.3204e-07
7.87749e-07
7.21827e-07
6.57281e-07
5.95659e-07
5.37866e-07
4.8439e-07
4.3675e-07
3.93e-07
3.55873e-07
3.21863e-07
2.95129e-07
2.71366e-07
2.54333e-07
2.40324e-07
2.30867e-07
2.242e-07
2.19785e-07
2.17449e-07
2.15648e-07
2.14722e-07
2.12991e-07
2.08404e-07
2.03509e-07
1.91236e-07
1.78964e-07
1.58376e-07
1.36204e-07
1.11569e-07
8.54878e-08
6.23759e-08
4.35366e-08
2.64422e-08
1.7867e-08
9.29177e-09
5.99044e-09
3.2107e-09
1.72773e-09
9.74195e-10
4.37339e-10
2.54021e-10
9.2489e-11
5.44156e-11
1.63422e-11
8.86947e-12
2.34316e-12
1.27927e-12
9.09878e-13
5.4049e-13
1.71102e-13
8.74206e-14
5.81593e-14
2.88981e-14
7.19353e-15
4.92043e-15
2.64733e-15
6.20976e-16
4.0411e-16
1.87245e-16
5.40911e-17
2.748e-17
7.09111e-18
2.70222e-18
6.01857e-19
1.69189e-19
5.90457e-20
6.77571e-21
0
)


113
(
0
1.88943e-24
7.56136e-23
1.78771e-21
1.73547e-20
1.55157e-19
8.398e-19
7.01823e-18
4.61297e-17
1.57411e-16
8.31963e-16
4.15884e-15
9.56969e-15
4.70413e-14
1.57338e-13
3.7243e-13
1.40185e-12
3.25545e-12
8.1391e-12
2.19267e-11
4.36102e-11
1.11809e-10
2.23358e-10
4.43583e-10
9.00742e-10
1.5083e-09
2.95469e-09
5.09216e-09
8.22412e-09
1.37236e-08
2.08359e-08
3.17891e-08
4.68107e-08
6.46024e-08
9.06748e-08
1.20648e-07
1.5579e-07
1.97772e-07
2.42311e-07
2.90503e-07
3.38934e-07
3.86859e-07
4.30286e-07
4.68302e-07
5.01119e-07
5.21492e-07
5.37773e-07
5.40123e-07
5.37769e-07
5.25415e-07
5.08211e-07
4.85536e-07
4.60052e-07
4.32693e-07
4.05202e-07
3.77647e-07
3.52431e-07
3.28171e-07
3.07134e-07
2.87546e-07
2.70783e-07
2.55752e-07
2.42408e-07
2.30622e-07
2.19338e-07
2.08874e-07
1.98298e-07
1.87329e-07
1.76296e-07
1.63747e-07
1.51197e-07
1.37292e-07
1.23129e-07
1.08691e-07
9.40927e-08
8.00085e-08
6.66643e-08
5.37946e-08
4.32414e-08
3.26882e-08
2.52777e-08
1.81781e-08
1.3057e-08
9.0489e-09
5.84163e-09
3.941e-09
2.21287e-09
1.46223e-09
7.11598e-10
4.50442e-10
2.04425e-10
1.48328e-10
1.13361e-10
7.83943e-11
4.34275e-11
3.06467e-11
2.20917e-11
1.35367e-11
6.83828e-12
4.91371e-12
2.98914e-12
1.2472e-12
8.44537e-13
4.41877e-13
1.79781e-13
9.6582e-14
3.15169e-14
1.30805e-14
3.69225e-15
1.45516e-15
6.72055e-16
1.92296e-16
0
)


113
(
0
1.36879e-12
4.6831e-12
1.19725e-11
2.56178e-11
4.87098e-11
8.63141e-11
1.61698e-10
2.712e-10
4.14644e-10
6.47858e-10
9.8479e-10
1.40321e-09
2.0951e-09
2.94542e-09
4.02373e-09
5.52553e-09
7.28449e-09
9.7821e-09
1.27515e-08
1.61393e-08
2.05432e-08
2.55937e-08
3.21635e-08
3.94059e-08
4.7066e-08
5.6658e-08
6.71384e-08
7.88975e-08
9.19077e-08
1.05576e-07
1.20543e-07
1.36546e-07
1.53228e-07
1.70696e-07
1.88422e-07
2.0649e-07
2.24633e-07
2.42616e-07
2.60126e-07
2.7678e-07
2.92833e-07
3.07298e-07
3.20541e-07
3.32609e-07
3.42136e-07
3.50853e-07
3.56937e-07
3.61823e-07
3.64162e-07
3.64788e-07
3.63479e-07
3.60184e-07
3.55565e-07
3.48785e-07
3.4099e-07
3.31942e-07
3.22382e-07
3.11187e-07
2.99257e-07
2.86892e-07
2.7426e-07
2.61284e-07
2.4799e-07
2.34555e-07
2.20889e-07
2.07297e-07
1.93968e-07
1.80658e-07
1.67777e-07
1.54897e-07
1.42662e-07
1.3055e-07
1.19013e-07
1.07813e-07
9.70421e-08
8.68872e-08
7.69494e-08
6.80717e-08
5.91939e-08
5.16058e-08
4.41452e-08
3.76152e-08
3.16086e-08
2.61576e-08
2.16131e-08
1.72499e-08
1.39133e-08
1.05767e-08
8.3138e-09
6.08408e-09
5.27306e-09
4.55798e-09
3.8429e-09
3.12783e-09
2.65924e-09
2.2376e-09
1.81596e-09
1.44084e-09
1.18534e-09
9.29838e-10
6.87809e-10
5.44567e-10
4.01325e-10
2.85003e-10
2.02944e-10
1.30208e-10
8.14473e-11
4.44037e-11
2.9261e-11
1.82701e-11
8.61545e-12
0
)


113
(
0
2.78736e-10
6.32367e-10
1.11504e-09
1.73984e-09
2.52186e-09
3.49547e-09
4.72425e-09
6.16945e-09
7.81523e-09
9.85828e-09
1.21811e-08
1.47239e-08
1.79372e-08
2.13536e-08
2.50621e-08
2.94469e-08
3.41183e-08
3.93629e-08
4.50178e-08
5.10365e-08
5.73178e-08
6.38998e-08
7.12549e-08
7.89426e-08
8.68183e-08
9.47353e-08
1.03204e-07
1.12467e-07
1.21605e-07
1.30847e-07
1.406e-07
1.50088e-07
1.59405e-07
1.68632e-07
1.77866e-07
1.87109e-07
1.95879e-07
2.04432e-07
2.12625e-07
2.20355e-07
2.27774e-07
2.34444e-07
2.40663e-07
2.46447e-07
2.51195e-07
2.55634e-07
2.59163e-07
2.62215e-07
2.64257e-07
2.6562e-07
2.66219e-07
2.65667e-07
2.64349e-07
2.62591e-07
2.60626e-07
2.5761e-07
2.54166e-07
2.49168e-07
2.43473e-07
2.37728e-07
2.31952e-07
2.25343e-07
2.17964e-07
2.10364e-07
2.02404e-07
1.94271e-07
1.85523e-07
1.76775e-07
1.68024e-07
1.59273e-07
1.50428e-07
1.41565e-07
1.32662e-07
1.23734e-07
1.14953e-07
1.06383e-07
9.79478e-08
9.01702e-08
8.23926e-08
7.50641e-08
6.778e-08
6.10132e-08
5.45373e-08
4.83363e-08
4.2584e-08
3.69734e-08
3.21664e-08
2.73594e-08
2.33817e-08
1.94297e-08
1.77459e-08
1.61544e-08
1.45629e-08
1.29714e-08
1.16601e-08
1.04022e-08
9.14419e-09
7.96348e-09
6.98144e-09
5.99939e-09
5.04368e-09
4.28105e-09
3.51841e-09
2.82944e-09
2.2342e-09
1.67233e-09
1.19623e-09
7.67671e-10
5.66841e-10
3.79848e-10
1.93417e-10
0
)


113
(
0
1.58488e-09
3.17031e-09
4.91488e-09
6.85549e-09
9.00449e-09
1.13871e-08
1.40395e-08
1.6893e-08
1.99246e-08
2.32661e-08
2.67965e-08
3.04753e-08
3.44881e-08
3.86329e-08
4.29678e-08
4.75453e-08
5.22306e-08
5.71461e-08
6.21906e-08
6.73494e-08
7.26916e-08
7.80958e-08
8.3618e-08
8.93752e-08
9.52691e-08
1.01388e-07
1.07293e-07
1.12892e-07
1.19008e-07
1.25e-07
1.30031e-07
1.35494e-07
1.41231e-07
1.46897e-07
1.51946e-07
1.56178e-07
1.61001e-07
1.65686e-07
1.69717e-07
1.73632e-07
1.77437e-07
1.80804e-07
1.83892e-07
1.86713e-07
1.89169e-07
1.91479e-07
1.93163e-07
1.94695e-07
1.95907e-07
1.96741e-07
1.97149e-07
1.97139e-07
1.96851e-07
1.96259e-07
1.95523e-07
1.93857e-07
1.9181e-07
1.89535e-07
1.87157e-07
1.84423e-07
1.81471e-07
1.7802e-07
1.74107e-07
1.69987e-07
1.65528e-07
1.61014e-07
1.56305e-07
1.51592e-07
1.46784e-07
1.41976e-07
1.3626e-07
1.3037e-07
1.23974e-07
1.17281e-07
1.11247e-07
1.06163e-07
1.0095e-07
9.51043e-08
8.9259e-08
8.35051e-08
7.77603e-08
7.21417e-08
6.65942e-08
6.11541e-08
5.58892e-08
5.06772e-08
4.57646e-08
4.0852e-08
3.63291e-08
3.18182e-08
2.97257e-08
2.76846e-08
2.56435e-08
2.36024e-08
2.17431e-08
1.99185e-08
1.80939e-08
1.63277e-08
1.47118e-08
1.30959e-08
1.15027e-08
1.00755e-08
8.64829e-09
7.28727e-09
6.01046e-09
4.75971e-09
3.57597e-09
2.41068e-09
1.83187e-09
1.24245e-09
6.37569e-10
0
)


113
(
0
2.98886e-09
5.759e-09
8.48892e-09
1.12631e-08
1.41145e-08
1.70691e-08
2.01504e-08
2.33242e-08
2.6579e-08
2.99652e-08
3.34227e-08
3.69363e-08
4.05588e-08
4.42173e-08
4.79274e-08
5.16899e-08
5.54725e-08
5.92903e-08
6.31179e-08
6.69543e-08
7.07864e-08
7.46106e-08
7.84141e-08
8.21851e-08
8.59364e-08
8.9616e-08
9.32569e-08
9.68419e-08
1.00335e-07
1.03776e-07
1.07111e-07
1.10352e-07
1.13506e-07
1.15402e-07
1.17681e-07
1.20467e-07
1.23082e-07
1.25609e-07
1.27978e-07
1.30192e-07
1.32306e-07
1.34209e-07
1.37321e-07
1.41596e-07
1.43448e-07
1.44866e-07
1.46506e-07
1.47835e-07
1.48503e-07
1.48842e-07
1.4881e-07
1.48583e-07
1.48226e-07
1.48548e-07
1.49189e-07
1.46155e-07
1.41619e-07
1.39313e-07
1.38009e-07
1.3647e-07
1.34787e-07
1.32913e-07
1.30861e-07
1.28676e-07
1.26273e-07
1.23913e-07
1.21707e-07
1.19467e-07
1.16375e-07
1.13284e-07
1.09971e-07
1.06616e-07
1.03116e-07
9.9531e-08
9.58677e-08
9.20912e-08
8.82891e-08
8.43618e-08
8.04345e-08
7.64106e-08
7.23771e-08
6.83062e-08
6.42143e-08
6.01191e-08
5.60186e-08
5.19244e-08
4.78658e-08
4.38072e-08
3.98365e-08
3.58686e-08
3.39352e-08
3.20177e-08
3.01002e-08
2.81828e-08
2.63326e-08
2.44952e-08
2.26579e-08
2.08431e-08
1.90865e-08
1.73299e-08
1.55808e-08
1.38873e-08
1.21938e-08
1.05116e-08
8.84381e-09
7.16941e-09
5.47809e-09
3.74286e-09
2.86055e-09
1.9392e-09
9.91636e-10
0
)


113
(
0
3.44243e-09
6.59657e-09
9.56999e-09
1.24464e-08
1.52647e-08
1.80479e-08
2.08153e-08
2.3579e-08
2.63414e-08
2.91063e-08
3.18725e-08
3.46395e-08
3.74031e-08
4.01619e-08
4.29136e-08
4.56478e-08
4.83719e-08
5.10689e-08
5.37429e-08
5.63966e-08
5.90023e-08
6.1462e-08
6.35215e-08
6.57875e-08
6.81677e-08
7.04584e-08
7.27079e-08
7.48984e-08
7.70026e-08
7.90611e-08
8.10284e-08
8.2921e-08
8.47632e-08
8.64791e-08
8.81371e-08
8.97183e-08
9.11805e-08
9.25826e-08
9.38786e-08
9.50715e-08
9.61994e-08
9.71908e-08
9.80986e-08
9.8926e-08
9.96076e-08
1.00241e-07
1.00712e-07
1.01121e-07
1.014e-07
1.01586e-07
1.01666e-07
1.01625e-07
1.01503e-07
1.01238e-07
1.00907e-07
1.00425e-07
9.98802e-08
9.91862e-08
9.84251e-08
9.75289e-08
9.655e-08
9.54585e-08
9.42629e-08
9.29861e-08
9.15769e-08
9.01219e-08
8.85046e-08
8.68794e-08
8.50615e-08
8.32436e-08
8.12652e-08
7.92562e-08
7.71341e-08
7.49457e-08
7.26892e-08
7.03348e-08
6.80248e-08
6.59324e-08
6.38399e-08
6.11854e-08
5.84752e-08
5.57007e-08
5.28901e-08
5.00493e-08
4.71594e-08
4.42608e-08
4.13132e-08
3.83656e-08
3.53807e-08
3.23947e-08
3.08915e-08
2.93851e-08
2.78786e-08
2.63722e-08
2.48537e-08
2.33329e-08
2.18122e-08
2.02845e-08
1.87391e-08
1.71937e-08
1.56429e-08
1.4053e-08
1.2463e-08
1.08422e-08
9.18213e-09
7.49615e-09
5.74359e-09
3.9247e-09
2.99459e-09
2.02329e-09
1.02918e-09
0
)


113
(
0
2.8742e-09
5.54325e-09
8.04255e-09
1.04183e-08
1.26939e-08
1.48788e-08
1.69803e-08
1.90288e-08
2.10328e-08
2.29696e-08
2.48698e-08
2.67413e-08
2.8552e-08
3.03388e-08
3.20913e-08
3.37977e-08
3.54826e-08
3.71193e-08
3.87245e-08
4.03018e-08
4.1824e-08
4.33235e-08
4.47762e-08
4.61869e-08
4.75727e-08
4.88918e-08
5.01821e-08
5.14308e-08
5.26214e-08
5.37818e-08
5.4883e-08
5.59371e-08
5.69595e-08
5.79043e-08
5.88141e-08
5.96778e-08
6.04712e-08
6.12294e-08
6.19259e-08
6.25633e-08
6.31636e-08
6.36865e-08
6.41625e-08
6.45935e-08
6.49433e-08
6.52666e-08
6.55e-08
6.56996e-08
6.58277e-08
6.59049e-08
6.59246e-08
6.58779e-08
6.57869e-08
6.56186e-08
6.54138e-08
6.51262e-08
6.48049e-08
6.44016e-08
6.39614e-08
6.34467e-08
6.28863e-08
6.22631e-08
6.15819e-08
6.0855e-08
6.00533e-08
5.92254e-08
5.83046e-08
5.73791e-08
5.6341e-08
5.5303e-08
5.41688e-08
5.30163e-08
5.17938e-08
5.05303e-08
4.92228e-08
4.7852e-08
4.64636e-08
4.49892e-08
4.35147e-08
4.19494e-08
4.03751e-08
3.87394e-08
3.7069e-08
3.53633e-08
3.35998e-08
3.18224e-08
2.99664e-08
2.81104e-08
2.61619e-08
2.42105e-08
2.31956e-08
2.21683e-08
2.11411e-08
2.01138e-08
1.90378e-08
1.79525e-08
1.68672e-08
1.57631e-08
1.46107e-08
1.34583e-08
1.22966e-08
1.10673e-08
9.83801e-09
8.57179e-09
7.2586e-09
5.92191e-09
4.5248e-09
3.07847e-09
2.34033e-09
1.57567e-09
7.97644e-10
0
)


113
(
0
1.66372e-09
3.24225e-09
4.73947e-09
6.16926e-09
7.5383e-09
8.8466e-09
1.00921e-08
1.12942e-08
1.24591e-08
1.35634e-08
1.46334e-08
1.56762e-08
1.6661e-08
1.76234e-08
1.85534e-08
1.94419e-08
2.03116e-08
2.11401e-08
2.19435e-08
2.27247e-08
2.34649e-08
2.41891e-08
2.48808e-08
2.55452e-08
2.61935e-08
2.68009e-08
2.73916e-08
2.79582e-08
2.84926e-08
2.90107e-08
2.94974e-08
2.996e-08
3.04065e-08
3.08145e-08
3.12058e-08
3.15749e-08
3.1911e-08
3.22307e-08
3.25222e-08
3.27869e-08
3.30349e-08
3.32485e-08
3.34414e-08
3.36146e-08
3.37525e-08
3.38789e-08
3.39665e-08
3.40397e-08
3.40823e-08
3.41031e-08
3.40995e-08
3.40677e-08
3.4017e-08
3.39334e-08
3.38344e-08
3.37e-08
3.35513e-08
3.33674e-08
3.31677e-08
3.29357e-08
3.2684e-08
3.24047e-08
3.21e-08
3.17749e-08
3.14163e-08
3.10458e-08
3.06327e-08
3.02173e-08
2.97488e-08
2.92803e-08
2.87645e-08
2.82397e-08
2.76787e-08
2.70965e-08
2.64902e-08
2.5849e-08
2.51975e-08
2.44951e-08
2.37928e-08
2.30321e-08
2.22657e-08
2.14561e-08
2.06221e-08
1.9761e-08
1.88554e-08
1.79383e-08
1.69561e-08
1.5974e-08
1.49121e-08
1.38477e-08
1.32822e-08
1.27061e-08
1.213e-08
1.15539e-08
1.0939e-08
1.03167e-08
9.69444e-09
9.05882e-09
8.38889e-09
7.71897e-09
7.04336e-09
6.32599e-09
5.60862e-09
4.8716e-09
4.10955e-09
3.33659e-09
2.53554e-09
1.7141e-09
1.29724e-09
8.70303e-10
4.38569e-10
0
)


113
(
0
1.44946e-10
2.8641e-10
4.24219e-10
5.58715e-10
6.9e-10
8.17834e-10
9.41761e-10
1.06279e-09
1.18126e-09
1.29527e-09
1.40652e-09
1.51562e-09
1.61976e-09
1.72186e-09
1.82104e-09
1.91624e-09
2.00961e-09
2.09889e-09
2.18558e-09
2.26998e-09
2.35004e-09
2.42839e-09
2.50322e-09
2.57507e-09
2.64515e-09
2.71072e-09
2.77442e-09
2.83544e-09
2.89288e-09
2.94849e-09
3.0006e-09
3.05003e-09
3.09767e-09
3.14103e-09
3.18255e-09
3.22161e-09
3.25704e-09
3.29068e-09
3.32122e-09
3.34885e-09
3.37466e-09
3.39674e-09
3.4166e-09
3.43432e-09
3.44825e-09
3.46095e-09
3.4695e-09
3.47652e-09
3.48026e-09
3.4817e-09
3.48053e-09
3.47636e-09
3.47019e-09
3.46051e-09
3.44919e-09
3.43412e-09
3.41751e-09
3.39715e-09
3.37511e-09
3.34961e-09
3.32199e-09
3.29141e-09
3.2581e-09
3.22258e-09
3.18346e-09
3.14303e-09
3.09799e-09
3.05271e-09
3.00165e-09
2.95058e-09
2.89437e-09
2.83717e-09
2.77605e-09
2.71262e-09
2.64659e-09
2.57681e-09
2.50592e-09
2.42963e-09
2.35334e-09
2.271e-09
2.18805e-09
2.10078e-09
2.01107e-09
1.91876e-09
1.82222e-09
1.72465e-09
1.62127e-09
1.51788e-09
1.40795e-09
1.29781e-09
1.24025e-09
1.18191e-09
1.12357e-09
1.06524e-09
1.00431e-09
9.42891e-10
8.81472e-10
8.19264e-10
7.55026e-10
6.90788e-10
6.2625e-10
5.59519e-10
4.92788e-10
4.25134e-10
3.56306e-10
2.87012e-10
2.16525e-10
1.45236e-10
1.09352e-10
7.30948e-11
3.66669e-11
0
)

)


10
(

113
(
0
1.73532e-32
2.48165e-31
1.9784e-30
7.64182e-30
3.22212e-29
2.46011e-28
2.23794e-27
1.7089e-26
1.01987e-25
4.82843e-25
1.87819e-24
6.23046e-24
1.81925e-23
4.77166e-23
1.21865e-22
3.34076e-22
8.94478e-22
2.37391e-21
6.28554e-21
1.65824e-20
4.32243e-20
1.09737e-19
3.36203e-19
1.06207e-18
3.5216e-18
1.28389e-17
5.79083e-17
3.76537e-16
3.4132e-15
3.5024e-14
3.48561e-13
3.15725e-12
2.53696e-11
1.8487e-10
1.38265e-09
8.86205e-09
4.4869e-08
1.75909e-07
5.2711e-07
1.20984e-06
2.1634e-06
3.09521e-06
3.726e-06
3.95872e-06
3.8626e-06
3.57919e-06
3.23756e-06
2.92246e-06
2.66658e-06
2.46514e-06
2.30556e-06
2.17182e-06
2.04957e-06
1.92728e-06
1.79061e-06
1.63534e-06
1.46348e-06
1.27719e-06
1.07864e-06
8.82904e-07
6.96145e-07
5.2541e-07
3.88722e-07
2.73025e-07
1.83746e-07
1.2503e-07
7.85225e-08
5.0536e-08
3.17675e-08
1.83433e-08
1.20855e-08
6.96599e-09
4.41733e-09
2.62286e-09
1.57058e-09
9.70141e-10
5.4454e-10
3.52118e-10
1.90867e-10
1.24773e-10
6.80468e-11
4.25091e-11
2.30957e-11
1.3424e-11
7.18009e-12
3.69578e-12
1.96011e-12
8.07325e-13
4.55659e-13
1.84445e-13
1.36697e-13
8.89502e-14
5.34555e-14
4.01255e-14
2.67954e-14
1.64609e-14
1.23197e-14
8.17839e-15
5.45664e-15
3.94413e-15
2.46428e-15
1.81108e-15
1.15787e-15
7.8253e-16
4.56625e-16
2.76049e-16
1.3565e-16
4.98549e-17
2.22411e-17
8.13141e-18
1.2062e-18
0
)


113
(
0
9.95859e-24
3.1048e-22
7.43644e-21
7.87336e-20
5.75433e-19
4.42881e-18
2.94814e-17
1.65212e-16
8.42107e-16
4.03286e-15
1.64869e-14
6.26762e-14
2.14647e-13
6.46744e-13
1.87146e-12
5.71148e-12
1.59825e-11
4.14806e-11
1.00515e-10
2.28504e-10
4.89678e-10
9.96706e-10
2.08213e-09
4.11104e-09
7.69967e-09
1.37985e-08
2.38205e-08
3.98541e-08
6.44014e-08
1.00146e-07
1.50469e-07
2.18972e-07
3.09506e-07
4.24833e-07
5.67285e-07
7.36002e-07
9.28595e-07
1.14007e-06
1.36366e-06
1.59102e-06
1.81123e-06
2.01631e-06
2.19483e-06
2.3405e-06
2.44838e-06
2.51505e-06
2.5411e-06
2.52707e-06
2.47727e-06
2.39789e-06
2.29426e-06
2.1722e-06
2.03667e-06
1.89178e-06
1.7405e-06
1.58746e-06
1.43459e-06
1.28312e-06
1.13599e-06
9.95161e-07
8.60304e-07
7.33185e-07
6.1897e-07
5.13041e-07
4.17661e-07
3.37743e-07
2.65449e-07
2.06663e-07
1.58401e-07
1.16241e-07
8.74952e-08
6.19593e-08
4.44221e-08
3.06629e-08
2.06217e-08
1.39914e-08
8.6809e-09
5.86016e-09
3.39742e-09
2.25697e-09
1.27119e-09
8.00294e-10
4.4164e-10
2.61527e-10
1.44235e-10
7.75154e-11
4.31649e-11
1.96039e-11
1.16822e-11
5.4043e-12
4.06844e-12
2.73259e-12
1.71609e-12
1.2773e-12
8.38504e-13
4.97841e-13
3.60058e-13
2.22275e-13
1.34316e-13
8.87998e-14
4.44602e-14
2.99094e-14
1.53587e-14
9.02122e-15
4.13498e-15
2.29348e-15
1.0111e-15
3.94913e-16
2.13576e-16
1.10374e-16
4.10941e-17
0
)


113
(
0
6.52914e-12
2.23993e-11
5.76528e-11
1.22819e-10
2.36748e-10
4.28365e-10
7.41076e-10
1.24177e-09
1.98916e-09
3.08833e-09
4.63366e-09
6.7847e-09
9.74664e-09
1.37e-08
1.8878e-08
2.59084e-08
3.4921e-08
4.61692e-08
5.99718e-08
7.66718e-08
9.66698e-08
1.20677e-07
1.50019e-07
1.84169e-07
2.22855e-07
2.66369e-07
3.14961e-07
3.6893e-07
4.28614e-07
4.94027e-07
5.64709e-07
6.40055e-07
7.18911e-07
7.99148e-07
8.81427e-07
9.65135e-07
1.04853e-06
1.13094e-06
1.21064e-06
1.28656e-06
1.35724e-06
1.42139e-06
1.47907e-06
1.52825e-06
1.56841e-06
1.59907e-06
1.61931e-06
1.62984e-06
1.63011e-06
1.61971e-06
1.59865e-06
1.568e-06
1.52881e-06
1.48185e-06
1.42638e-06
1.3644e-06
1.29764e-06
1.22708e-06
1.15292e-06
1.07671e-06
9.9944e-07
9.21431e-07
8.44255e-07
7.68309e-07
6.94172e-07
6.24018e-07
5.56215e-07
4.92997e-07
4.34219e-07
3.78015e-07
3.29047e-07
2.82318e-07
2.41404e-07
2.04268e-07
1.70849e-07
1.42646e-07
1.16462e-07
9.60379e-08
7.65987e-08
6.2122e-08
4.86192e-08
3.83589e-08
2.93836e-08
2.24521e-08
1.68501e-08
1.23184e-08
9.08056e-09
6.27409e-09
4.55173e-09
3.04986e-09
2.55186e-09
2.05387e-09
1.63075e-09
1.34308e-09
1.05542e-09
8.10433e-10
6.53686e-10
4.96939e-10
3.77387e-10
2.89517e-10
2.03135e-10
1.5438e-10
1.05626e-10
7.49136e-11
4.74267e-11
3.12289e-11
1.82098e-11
9.40354e-12
6.10904e-12
3.70038e-12
1.71226e-12
0
)


113
(
0
1.31642e-09
2.98581e-09
5.27191e-09
8.22043e-09
1.19449e-08
1.65701e-08
2.22193e-08
2.90108e-08
3.70551e-08
4.64553e-08
5.73081e-08
6.97077e-08
8.37448e-08
9.95323e-08
1.17579e-07
1.37538e-07
1.5873e-07
1.82149e-07
2.07715e-07
2.35047e-07
2.64237e-07
2.95575e-07
3.29294e-07
3.64e-07
3.99539e-07
4.36628e-07
4.76204e-07
5.16887e-07
5.57154e-07
5.98079e-07
6.38542e-07
6.78628e-07
7.20078e-07
7.61238e-07
8.01627e-07
8.40469e-07
8.76809e-07
9.11923e-07
9.45079e-07
9.7577e-07
1.004e-06
1.02938e-06
1.05148e-06
1.07093e-06
1.08697e-06
1.09961e-06
1.108e-06
1.11257e-06
1.11483e-06
1.11289e-06
1.10663e-06
1.09659e-06
1.08331e-06
1.06716e-06
1.04692e-06
1.0232e-06
9.97372e-07
9.69897e-07
9.39573e-07
9.06716e-07
8.71893e-07
8.34833e-07
7.96554e-07
7.57908e-07
7.18941e-07
6.79396e-07
6.39593e-07
5.99362e-07
5.59598e-07
5.20104e-07
4.82081e-07
4.44511e-07
4.08112e-07
3.72746e-07
3.38398e-07
3.06386e-07
2.75278e-07
2.47568e-07
2.20431e-07
1.96123e-07
1.72491e-07
1.51104e-07
1.30871e-07
1.12473e-07
9.5913e-08
8.08341e-08
6.81803e-08
5.6335e-08
4.66706e-08
3.76331e-08
3.38433e-08
3.00535e-08
2.65661e-08
2.36261e-08
2.0686e-08
1.79673e-08
1.57064e-08
1.34455e-08
1.14699e-08
9.73743e-09
8.0202e-09
6.68954e-09
5.35888e-09
4.28338e-09
3.25395e-09
2.43975e-09
1.70229e-09
1.07021e-09
7.84177e-10
5.2042e-10
2.62794e-10
0
)


113
(
0
7.3115e-09
1.45859e-08
2.25921e-08
3.14739e-08
4.13343e-08
5.22248e-08
6.41559e-08
7.71152e-08
9.1079e-08
1.06019e-07
1.21905e-07
1.38705e-07
1.56386e-07
1.74913e-07
1.94303e-07
2.14541e-07
2.35475e-07
2.57049e-07
2.79204e-07
3.01879e-07
3.25006e-07
3.48514e-07
3.72352e-07
3.96607e-07
4.2112e-07
4.46597e-07
4.70982e-07
4.94907e-07
5.19565e-07
5.42318e-07
5.65563e-07
5.8847e-07
6.09009e-07
6.30571e-07
6.51263e-07
6.69722e-07
6.8616e-07
7.02016e-07
7.18546e-07
7.34524e-07
7.4619e-07
7.57668e-07
7.67578e-07
7.76374e-07
7.83496e-07
7.89199e-07
7.93327e-07
7.95814e-07
7.9661e-07
7.96576e-07
7.94259e-07
7.90145e-07
7.84575e-07
7.7717e-07
7.68914e-07
7.5946e-07
7.48441e-07
7.35698e-07
7.20558e-07
7.05553e-07
6.8992e-07
6.72943e-07
6.54533e-07
6.35635e-07
6.16268e-07
5.93471e-07
5.70174e-07
5.4729e-07
5.26614e-07
5.07219e-07
4.8391e-07
4.59043e-07
4.3001e-07
4.03655e-07
3.79936e-07
3.58461e-07
3.37854e-07
3.15588e-07
2.93223e-07
2.71671e-07
2.50373e-07
2.2992e-07
2.09961e-07
1.90788e-07
1.72398e-07
1.54637e-07
1.37998e-07
1.21732e-07
1.06977e-07
9.26794e-08
8.60628e-08
7.94462e-08
7.30878e-08
6.71964e-08
6.1305e-08
5.56351e-08
5.04232e-08
4.52114e-08
4.03336e-08
3.57404e-08
3.11678e-08
2.71154e-08
2.3063e-08
1.93872e-08
1.57794e-08
1.24912e-08
9.3019e-09
6.23051e-09
4.71647e-09
3.19156e-09
1.63219e-09
0
)


113
(
0
1.32412e-08
2.54341e-08
3.74256e-08
4.95777e-08
6.2056e-08
7.49456e-08
8.82744e-08
1.02034e-07
1.16194e-07
1.30717e-07
1.45563e-07
1.60689e-07
1.76058e-07
1.91629e-07
2.07372e-07
2.23245e-07
2.3919e-07
2.5517e-07
2.7115e-07
2.87093e-07
3.02962e-07
3.1872e-07
3.343e-07
3.49685e-07
3.6484e-07
3.79728e-07
3.94316e-07
4.08568e-07
4.22449e-07
4.35926e-07
4.48966e-07
4.61537e-07
4.73402e-07
4.8084e-07
4.91732e-07
5.02046e-07
5.11764e-07
5.20865e-07
5.29329e-07
5.3714e-07
5.44261e-07
5.50689e-07
5.57908e-07
5.73262e-07
5.79038e-07
5.83615e-07
5.87578e-07
5.90384e-07
5.9151e-07
5.91819e-07
5.91013e-07
5.88711e-07
5.85549e-07
5.82874e-07
5.79685e-07
5.66428e-07
5.51919e-07
5.39988e-07
5.32905e-07
5.25107e-07
5.16756e-07
5.07782e-07
4.98008e-07
4.87788e-07
4.77026e-07
4.67485e-07
4.57334e-07
4.44781e-07
4.31791e-07
4.18548e-07
4.04708e-07
3.90711e-07
3.76314e-07
3.61695e-07
3.46858e-07
3.3178e-07
3.16608e-07
3.01237e-07
2.85837e-07
2.70346e-07
2.54859e-07
2.39392e-07
2.23981e-07
2.08661e-07
1.93489e-07
1.78436e-07
1.6367e-07
1.48998e-07
1.34804e-07
1.2078e-07
1.13968e-07
1.07156e-07
1.00454e-07
9.39524e-08
8.74506e-08
8.10521e-08
7.48673e-08
6.86825e-08
6.2657e-08
5.67672e-08
5.08864e-08
4.52355e-08
3.95845e-08
3.40609e-08
2.85596e-08
2.30957e-08
1.75936e-08
1.19981e-08
9.14651e-09
6.20008e-09
3.1651e-09
0
)


113
(
0
1.46192e-08
2.79434e-08
4.04713e-08
5.25625e-08
6.43768e-08
7.60226e-08
8.75724e-08
9.90694e-08
1.10536e-07
1.21979e-07
1.33399e-07
1.4479e-07
1.56141e-07
1.67441e-07
1.7867e-07
1.89804e-07
2.00836e-07
2.11751e-07
2.22534e-07
2.3317e-07
2.43645e-07
2.53942e-07
2.60904e-07
2.70043e-07
2.79322e-07
2.8834e-07
2.97083e-07
3.05539e-07
3.13695e-07
3.21538e-07
3.29056e-07
3.36239e-07
3.43076e-07
3.49556e-07
3.55662e-07
3.61395e-07
3.6675e-07
3.71719e-07
3.76297e-07
3.80478e-07
3.84244e-07
3.87596e-07
3.90536e-07
3.93062e-07
3.95172e-07
3.96864e-07
3.98139e-07
3.98966e-07
3.9935e-07
3.99313e-07
3.98855e-07
3.97983e-07
3.96706e-07
3.95035e-07
3.92864e-07
3.90278e-07
3.87317e-07
3.84e-07
3.80205e-07
3.75995e-07
3.71463e-07
3.66561e-07
3.61173e-07
3.55506e-07
3.49497e-07
3.43027e-07
3.36331e-07
3.29236e-07
3.21808e-07
3.14188e-07
3.06077e-07
2.97826e-07
2.89212e-07
2.80369e-07
2.713e-07
2.61928e-07
2.5244e-07
2.44103e-07
2.35714e-07
2.25274e-07
2.14781e-07
2.04107e-07
1.93364e-07
1.8251e-07
1.71587e-07
1.6061e-07
1.49581e-07
1.38534e-07
1.27464e-07
1.16396e-07
1.10864e-07
1.05332e-07
9.98017e-08
9.42748e-08
8.87479e-08
8.32178e-08
7.76813e-08
7.21447e-08
6.65846e-08
6.10045e-08
5.54207e-08
4.97453e-08
4.407e-08
3.82605e-08
3.2426e-08
2.63768e-08
2.01955e-08
1.37943e-08
1.05055e-08
7.10164e-09
3.60881e-09
0
)


113
(
0
1.17474e-08
2.26181e-08
3.27755e-08
4.2417e-08
5.16217e-08
6.04537e-08
6.89694e-08
7.72145e-08
8.52243e-08
9.30253e-08
1.00637e-07
1.08073e-07
1.15343e-07
1.22455e-07
1.29402e-07
1.36178e-07
1.42803e-07
1.49277e-07
1.55598e-07
1.61763e-07
1.6777e-07
1.73616e-07
1.7927e-07
1.84756e-07
1.90071e-07
1.95208e-07
2.00166e-07
2.04939e-07
2.09524e-07
2.13916e-07
2.18113e-07
2.22109e-07
2.25903e-07
2.2949e-07
2.32862e-07
2.36023e-07
2.38971e-07
2.41705e-07
2.44221e-07
2.46519e-07
2.4859e-07
2.50435e-07
2.52057e-07
2.53456e-07
2.5463e-07
2.55579e-07
2.56305e-07
2.5679e-07
2.57038e-07
2.57061e-07
2.56858e-07
2.56432e-07
2.55789e-07
2.54933e-07
2.53807e-07
2.52455e-07
2.50899e-07
2.49147e-07
2.47132e-07
2.44887e-07
2.42461e-07
2.39828e-07
2.36917e-07
2.33847e-07
2.30579e-07
2.2704e-07
2.23367e-07
2.19455e-07
2.15339e-07
2.11104e-07
2.0656e-07
2.01924e-07
1.97051e-07
1.92021e-07
1.86837e-07
1.81433e-07
1.75945e-07
1.70189e-07
1.64384e-07
1.58318e-07
1.52189e-07
1.4585e-07
1.3941e-07
1.32809e-07
1.26067e-07
1.19212e-07
1.12166e-07
1.05058e-07
9.76932e-08
9.02455e-08
8.64247e-08
8.2604e-08
7.87294e-08
7.47575e-08
7.07856e-08
6.6758e-08
6.26154e-08
5.84728e-08
5.42253e-08
4.98884e-08
4.55433e-08
4.09885e-08
3.64337e-08
3.16778e-08
2.6885e-08
2.18522e-08
1.67004e-08
1.13628e-08
8.62656e-09
5.81135e-09
2.9401e-09
0
)


113
(
0
6.59976e-09
1.28499e-08
1.87708e-08
2.44221e-08
2.98192e-08
3.49769e-08
3.99125e-08
4.46431e-08
4.91846e-08
5.3551e-08
5.77537e-08
6.18028e-08
6.57063e-08
6.94715e-08
7.30949e-08
7.65759e-08
7.99352e-08
8.31766e-08
8.63031e-08
8.93173e-08
9.22213e-08
9.50167e-08
9.76895e-08
1.00259e-07
1.02726e-07
1.05091e-07
1.07355e-07
1.09519e-07
1.11584e-07
1.13549e-07
1.15415e-07
1.17182e-07
1.18852e-07
1.20423e-07
1.21894e-07
1.23267e-07
1.24544e-07
1.25724e-07
1.26807e-07
1.27794e-07
1.28682e-07
1.29473e-07
1.30167e-07
1.30765e-07
1.31268e-07
1.31675e-07
1.31987e-07
1.32198e-07
1.32308e-07
1.32324e-07
1.32244e-07
1.3207e-07
1.31805e-07
1.31449e-07
1.30979e-07
1.30413e-07
1.29759e-07
1.29022e-07
1.28171e-07
1.27219e-07
1.26188e-07
1.25066e-07
1.2382e-07
1.22502e-07
1.21094e-07
1.1956e-07
1.17963e-07
1.16253e-07
1.14442e-07
1.12574e-07
1.10548e-07
1.08474e-07
1.06274e-07
1.03987e-07
1.01614e-07
9.91111e-08
9.65582e-08
9.3836e-08
9.10822e-08
8.81494e-08
8.51699e-08
8.20351e-08
7.88187e-08
7.54725e-08
7.20033e-08
6.84351e-08
6.46914e-08
6.08893e-08
5.68427e-08
5.27174e-08
5.0563e-08
4.84085e-08
4.62056e-08
4.39148e-08
4.1624e-08
3.92872e-08
3.68551e-08
3.4423e-08
3.19133e-08
2.93374e-08
2.67561e-08
2.40377e-08
2.13194e-08
1.84853e-08
1.56301e-08
1.26522e-08
9.61955e-09
6.5043e-09
4.91827e-09
3.30112e-09
1.66299e-09
0
)


113
(
0
5.61476e-10
1.10921e-09
1.64267e-09
2.16339e-09
2.67111e-09
3.16565e-09
3.64702e-09
4.11539e-09
4.571e-09
5.0141e-09
5.44491e-09
5.86365e-09
6.27047e-09
6.66552e-09
7.04809e-09
7.41764e-09
7.77573e-09
8.12246e-09
8.4579e-09
8.7821e-09
9.09511e-09
9.39693e-09
9.68594e-09
9.96403e-09
1.02312e-08
1.04875e-08
1.0733e-08
1.09677e-08
1.11916e-08
1.14047e-08
1.16072e-08
1.17989e-08
1.198e-08
1.21504e-08
1.23101e-08
1.24592e-08
1.25978e-08
1.27261e-08
1.28441e-08
1.29517e-08
1.30488e-08
1.31354e-08
1.32118e-08
1.3278e-08
1.33341e-08
1.338e-08
1.34159e-08
1.3441e-08
1.34555e-08
1.346e-08
1.34544e-08
1.34388e-08
1.34135e-08
1.33786e-08
1.33315e-08
1.32742e-08
1.32076e-08
1.31319e-08
1.30441e-08
1.29455e-08
1.28383e-08
1.27212e-08
1.25906e-08
1.24521e-08
1.23038e-08
1.21418e-08
1.19727e-08
1.17911e-08
1.15984e-08
1.13992e-08
1.11826e-08
1.09606e-08
1.07247e-08
1.0479e-08
1.02237e-08
9.95415e-09
9.67906e-09
9.38546e-09
9.08843e-09
8.77218e-09
8.45104e-09
8.11364e-09
7.76798e-09
7.40919e-09
7.03851e-09
6.65825e-09
6.26197e-09
5.86035e-09
5.43785e-09
5.00913e-09
4.78752e-09
4.56592e-09
4.3408e-09
4.10935e-09
3.87789e-09
3.6434e-09
3.40264e-09
3.16189e-09
2.9165e-09
2.66717e-09
2.41754e-09
2.1605e-09
1.90345e-09
1.64069e-09
1.37689e-09
1.10752e-09
8.35832e-10
5.6073e-10
4.22048e-10
2.8218e-10
1.41538e-10
0
)

)


10
(

113
(
0
4.97658e-29
8.50769e-28
5.78684e-27
2.32004e-26
7.70817e-26
3.24776e-25
2.14179e-24
1.48732e-23
8.31983e-23
3.74053e-22
1.358e-21
4.1e-21
1.06923e-20
2.71154e-20
7.44e-20
1.962e-19
4.81538e-19
1.05158e-18
2.57742e-18
6.61385e-18
1.727e-17
4.63667e-17
1.22746e-16
3.02977e-16
1.17525e-15
5.66e-15
3.201e-14
1.84275e-13
8.86083e-13
4.31692e-12
3.21836e-11
2.06767e-10
1.1255e-09
5.42909e-09
2.37727e-08
8.76818e-08
2.74273e-07
7.37e-07
1.78518e-06
3.49364e-06
5.834e-06
8.04636e-06
9.887e-06
1.07818e-05
1.08364e-05
1.025e-05
9.26e-06
8.12333e-06
6.94e-06
5.92462e-06
4.92583e-06
4.02231e-06
3.23857e-06
2.58143e-06
2.01e-06
1.50571e-06
1.07e-06
7.82e-07
5.48625e-07
3.69875e-07
2.55812e-07
1.63506e-07
1.05194e-07
6.82647e-08
4.05e-08
2.8e-08
1.687e-08
1.122e-08
6.83444e-09
4.34556e-09
2.73737e-09
1.71632e-09
1.10789e-09
6.76316e-10
4.512e-10
2.777e-10
1.8536e-10
1.1331e-10
7.498e-11
4.508e-11
2.934e-11
1.714e-11
1.06916e-11
5.68105e-12
3.614e-12
1.874e-12
1.119e-12
5.18056e-13
3.18611e-13
1.59535e-13
1.27094e-13
9.46529e-14
6.63e-14
5.43e-14
4.23e-14
3.03e-14
2.51e-14
1.99e-14
1.47e-14
1.16292e-14
8.55833e-15
6.31273e-15
4.61727e-15
3.16889e-15
2.09111e-15
1.24214e-15
6.11667e-16
2.45e-16
1.38125e-16
4.635e-17
7.6675e-18
0
)


113
(
0
9.40755e-23
2.84064e-21
4.19914e-20
3.92922e-19
2.93434e-18
2.12964e-17
1.37286e-16
7.94085e-16
4.13679e-15
1.91358e-14
7.61454e-14
2.55297e-13
7.67773e-13
2.46796e-12
7.80619e-12
2.26757e-11
6.03927e-11
1.35469e-10
3.1593e-10
7.73477e-10
1.69114e-09
3.47577e-09
6.72918e-09
1.23731e-08
2.3365e-08
4.22378e-08
7.25888e-08
1.19038e-07
1.87281e-07
2.89081e-07
4.34164e-07
6.32832e-07
8.89107e-07
1.2082e-06
1.59905e-06
2.05739e-06
2.57726e-06
3.1462e-06
3.74489e-06
4.3425e-06
4.9132e-06
5.42165e-06
5.85046e-06
6.16533e-06
6.35767e-06
6.42148e-06
6.35455e-06
6.17112e-06
5.87817e-06
5.47506e-06
5.02086e-06
4.52736e-06
4.01572e-06
3.50109e-06
3.01052e-06
2.54604e-06
2.11165e-06
1.74316e-06
1.41153e-06
1.11676e-06
8.86502e-07
6.81972e-07
5.20755e-07
3.95283e-07
2.85129e-07
2.15227e-07
1.51018e-07
1.0958e-07
7.54124e-08
5.21518e-08
3.55498e-08
2.33869e-08
1.56395e-08
9.78453e-09
6.54074e-09
3.94973e-09
2.58117e-09
1.51821e-09
9.75479e-10
5.62803e-10
3.56052e-10
2.00782e-10
1.24057e-10
6.69695e-11
4.26798e-11
2.20343e-11
1.35164e-11
6.7992e-12
4.16085e-12
2.03668e-12
1.57447e-12
1.11225e-12
7.10974e-13
5.53418e-13
3.95862e-13
2.38305e-13
1.83674e-13
1.29043e-13
7.44124e-14
5.4988e-14
3.55636e-14
2.31415e-14
1.53875e-14
9.36414e-15
5.93679e-15
3.51009e-15
1.90109e-15
8.94532e-16
5.87342e-16