/*--------------------------------*- C++ -*----------------------------------*\
| =========                 |                                                 |
| \\      /  F ield         | OpenFOAM: The Open Source CFD Toolbox           |
|  \\    /   O peration     | Version:  2.3.0                                 |
|   \\  /    A nd           | Web:      www.OpenFOAM.org                      |
|    \\/     M anipulation  |                                                 |
\*---------------------------------------------------------------------------*/
FoamFile
{
    version     2.0;
    format      ascii;
    class       dictionary;
    location    "constant";
    object      CH2O;
}
// * * * * * * * * * * * * * * * * * * * * * * * * * * * * * * * * * * * * * //

CH2O_table
13
(

10
(

113
(
0
1.42175e-22
6.83458e-22
2.4983e-21
7.68947e-21
2.08143e-20
5.22429e-20
1.42946e-19
3.3811e-19
6.60808e-19
1.48664e-18
3.50846e-18
6.47e-18
1.98222e-17
5.47702e-17
1.20795e-16
3.95595e-16
9.35787e-16
2.51688e-15
7.0773e-15
1.42798e-14
4.14512e-14
9.14148e-14
1.99933e-13
4.60235e-13
8.18391e-13
1.78796e-12
3.33789e-12
5.72298e-12
1.03761e-11
1.66525e-11
2.69025e-11
4.45195e-11
7.0244e-11
2.62445e-10
2.14589e-09
6.2712e-09
5.50979e-08
2.04415e-07
6.04098e-07
1.64741e-06
3.0682e-06
5.13652e-06
6.99898e-06
8.66365e-06
9.69231e-06
1.0543e-05
1.09341e-05
1.12519e-05
1.14141e-05
1.15e-05
1.15e-05
1.14687e-05
1.14167e-05
1.14e-05
1.14e-05
1.15054e-05
1.1654e-05
1.20667e-05
1.25981e-05
1.35381e-05
1.47286e-05
1.64907e-05
1.87804e-05
2.18361e-05
2.61417e-05
3.12862e-05
3.94055e-05
4.78218e-05
6.33673e-05
7.89127e-05
0.000105954
0.000135185
0.000178635
0.000230437
0.000293031
0.000371156
0.000450969
0.000539022
0.000627075
0.000694731
0.00076037
0.000797593
0.000818832
0.000824161
0.000803534
0.000778775
0.00073061
0.000682445
0.000621129
0.000559407
0.000527571
0.000495429
0.000463286
0.000431143
0.000399337
0.000367596
0.000335854
0.000304494
0.000274114
0.000243734
0.000213597
0.000185239
0.000156881
0.00012947
0.000103267
7.78148e-05
5.42963e-05
3.26286e-05
2.238e-05
1.338e-05
5.55381e-06
0
)


113
(
0
3.9574e-21
3.93246e-20
2.86032e-19
1.45713e-18
6.28149e-18
2.3361e-17
1.13422e-16
5.13243e-16
1.51592e-15
6.83977e-15
3.06451e-14
6.89715e-14
3.23682e-13
1.07204e-12
2.53077e-12
9.46793e-12
2.21011e-11
5.58572e-11
1.5245e-10
3.04767e-10
8.00755e-10
1.62246e-09
3.26252e-09
6.74342e-09
1.1397e-08
2.27727e-08
3.99758e-08
6.55646e-08
1.12141e-07
1.73446e-07
2.7042e-07
4.09281e-07
5.76797e-07
8.36154e-07
1.1454e-06
1.52078e-06
2.00298e-06
2.53641e-06
3.15742e-06
3.84296e-06
4.56365e-06
5.32957e-06
6.09549e-06
6.86142e-06
7.58225e-06
8.28478e-06
8.90876e-06
9.50139e-06
1.00274e-05
1.05262e-05
1.09943e-05
1.14859e-05
1.19934e-05
1.26371e-05
1.3345e-05
1.43845e-05
1.55595e-05
1.73516e-05
1.94211e-05
2.24658e-05
2.61083e-05
3.11391e-05
3.74515e-05
4.5379e-05
5.59416e-05
6.78968e-05
8.47896e-05
0.000102027
0.000127534
0.00015304
0.000187163
0.000222927
0.000264895
0.000310507
0.00035868
0.000410541
0.000462204
0.000512903
0.000563602
0.000604183
0.000643764
0.000670495
0.000689997
0.000700103
0.000694876
0.000686131
0.000657445
0.000628758
0.000583324
0.000537371
0.000510642
0.000482727
0.000454813
0.000426898
0.000397466
0.000367745
0.000338024
0.000308358
0.000278833
0.000249308
0.000219944
0.000191756
0.000163568
0.000136246
0.000110027
8.44381e-05
6.04715e-05
3.79749e-05
2.71956e-05
1.74542e-05
8.39482e-06
0
)


113
(
0
1.26533e-11
4.36701e-11
1.12703e-10
2.43348e-10
4.6704e-10
8.36976e-10
1.55833e-09
2.64043e-09
4.08536e-09
6.45921e-09
9.93875e-09
1.4287e-08
2.16032e-08
3.06794e-08
4.22885e-08
5.92648e-08
7.92447e-08
1.07337e-07
1.42151e-07
1.82926e-07
2.3699e-07
2.99126e-07
3.80034e-07
4.75671e-07
5.80175e-07
7.13111e-07
8.61515e-07
1.03218e-06
1.23267e-06
1.45001e-06
1.70267e-06
1.98587e-06
2.28971e-06
2.64782e-06
3.03052e-06
3.44584e-06
3.92639e-06
4.43864e-06
5.00549e-06
5.65034e-06
6.344e-06
7.13853e-06
8.03334e-06
9.02449e-06
1.01854e-05
1.14247e-05
1.30364e-05
1.47742e-05
1.67802e-05
1.91306e-05
2.18694e-05
2.5126e-05
2.87277e-05
3.31726e-05
3.80143e-05
4.39458e-05
5.03223e-05
5.81489e-05
6.66269e-05
7.66365e-05
8.75846e-05
0.00010005
0.000113916
0.000128978
0.000145992
0.00016373
0.000184037
0.000204462
0.000227743
0.000251025
0.00027615
0.000301626
0.000327659
0.00035402
0.000379975
0.000405346
0.00043013
0.000452053
0.000473976
0.000490537
0.000506568
0.000517005
0.000524296
0.000527612
0.000524444
0.000519586
0.000505154
0.000490721
0.000465245
0.000439427
0.000422947
0.000405339
0.000387732
0.000370124
0.000349531
0.000328369
0.000307206
0.000285304
0.000261498
0.000237693
0.00021381
0.00018936
0.000164911
0.000140458
0.000116002
9.17438e-05
6.79957e-05
4.50516e-05
3.38251e-05
2.30411e-05
1.21503e-05
0
)


113
(
0
3.99157e-09
9.20938e-09
1.6543e-08
2.62979e-08
3.88362e-08
5.49053e-08
7.59713e-08
1.01543e-07
1.31386e-07
1.70309e-07
2.16277e-07
2.67782e-07
3.37171e-07
4.13483e-07
4.99757e-07
6.08023e-07
7.2725e-07
8.7314e-07
1.03797e-06
1.21961e-06
1.44035e-06
1.68214e-06
1.97144e-06
2.30373e-06
2.66146e-06
3.08061e-06
3.55691e-06
4.11547e-06
4.74718e-06
5.42282e-06
6.19491e-06
7.09551e-06
8.08162e-06
9.23199e-06
1.04965e-05
1.19124e-05
1.35568e-05
1.53166e-05
1.72792e-05
1.95195e-05
2.19363e-05
2.47314e-05
2.77944e-05
3.11147e-05
3.48667e-05
3.87901e-05
4.3434e-05
4.82661e-05
5.34982e-05
5.92092e-05
6.54604e-05
7.23465e-05
7.9656e-05
8.75343e-05
9.56802e-05
0.000104906
0.000114573
0.000124819
0.000135326
0.000146663
0.000158508
0.000170846
0.000183639
0.00019678
0.000210489
0.000224331
0.00023864
0.000252954
0.000267404
0.000281854
0.000295973
0.00031003
0.00032337
0.000336289
0.000348498
0.000359683
0.000370385
0.000378729
0.000387073
0.000392224
0.00039706
0.000398771
0.000398726
0.000396602
0.000391087
0.000384621
0.000372763
0.000360905
0.000343634
0.000326196
0.000315248
0.000303596
0.000291945
0.000280293
0.000266447
0.000252183
0.00023792
0.000223059
0.000206663
0.000190268
0.00017369
0.00015578
0.000137869
0.000119601
0.000100878
8.20626e-05
6.30118e-05
4.36402e-05
3.38234e-05
2.34494e-05
1.24469e-05
0
)


113
(
0
7.09246e-08
1.47417e-07
2.38051e-07
3.45589e-07
4.72119e-07
6.21698e-07
8.01516e-07
1.0068e-06
1.23568e-06
1.51155e-06
1.82131e-06
2.15771e-06
2.56584e-06
3.00841e-06
3.50052e-06
4.07076e-06
4.67968e-06
5.38211e-06
6.15245e-06
6.98301e-06
7.94396e-06
8.9616e-06
1.00993e-05
1.13856e-05
1.2759e-05
1.43074e-05
1.59399e-05
1.76936e-05
1.96213e-05
2.1661e-05
2.39585e-05
2.64098e-05
2.89633e-05
3.17121e-05
3.47017e-05
3.80104e-05
4.13583e-05
4.48465e-05
4.8695e-05
5.28731e-05
5.72149e-05
6.16717e-05
6.64741e-05
7.16085e-05
7.70501e-05
8.25779e-05
8.83292e-05
9.431e-05
0.000100778
0.000107452
0.000114356
0.0001214
0.000128538
0.000136274
0.000144292
0.000152252
0.000160189
0.000168439
0.00017683
0.000185323
0.000193878
0.000202477
0.000211118
0.000219679
0.000228111
0.000236488
0.000244671
0.000252825
0.000260288
0.00026775
0.000274207
0.000280473
0.000286044
0.000291208
0.000295633
0.000298995
0.000302072
0.000303761
0.000305449
0.00030499
0.000304319
0.000301896
0.000298487
0.000293913
0.000287435
0.00028046
0.000270658
0.000260856
0.000247701
0.000234442
0.000226517
0.000218183
0.000209848
0.000201513
0.000191863
0.000181962
0.000172061
0.00016179
0.000150567
0.000139345
0.000127998
0.000115738
0.000103478
9.08343e-05
7.77025e-05
6.42969e-05
5.01875e-05
3.52131e-05
2.74404e-05
1.89449e-05
9.93341e-06
0
)


113
(
0
5.22761e-07
1.03918e-06
1.58263e-06
2.16759e-06
2.80214e-06
3.49772e-06
4.27127e-06
5.10742e-06
6.00047e-06
6.99985e-06
8.06979e-06
9.19516e-06
1.04574e-05
1.17798e-05
1.31888e-05
1.47232e-05
1.63172e-05
1.80493e-05
1.98737e-05
2.17801e-05
2.38503e-05
2.59877e-05
2.82649e-05
3.06663e-05
3.31415e-05
3.58123e-05
3.85666e-05
4.14413e-05
4.44812e-05
4.76064e-05
5.08968e-05
5.43158e-05
5.78223e-05
6.15839e-05
6.54163e-05
6.93428e-05
7.34447e-05
7.76323e-05
8.19678e-05
8.64391e-05
9.09944e-05
9.57182e-05
0.000100854
0.000106385
0.000111752
0.000117149
0.000123046
0.000128764
0.000134101
0.000139559
0.000145153
0.000150615
0.000155989
0.000161173
0.000166268
0.000170195
0.000173645
0.000178252
0.000183378
0.000188364
0.000193262
0.000197992
0.000202566
0.000206974
0.000211114
0.000215136
0.000218743
0.000222321
0.000225179
0.000228037
0.000230209
0.00023225
0.000233681
0.000234755
0.000235365
0.000235308
0.00023503
0.000233672
0.000232313
0.000229611
0.000226777
0.000222893
0.000218419
0.00021327
0.000207021
0.000200492
0.000192376
0.000184259
0.000174307
0.000164299
0.000158599
0.000152679
0.00014676
0.00014084
0.000134206
0.000127435
0.000120665
0.000113674
0.000106114
9.8554e-05
9.09e-05
8.25557e-05
7.42113e-05
6.54835e-05
5.62676e-05
4.67641e-05
3.65208e-05
2.55236e-05
1.97872e-05
1.35493e-05
7.01348e-06
0
)


113
(
0
1.61359e-06
3.15469e-06
4.67339e-06
6.2028e-06
7.76053e-06
9.36334e-06
1.10324e-05
1.27574e-05
1.45337e-05
1.64072e-05
1.83441e-05
2.03308e-05
2.24366e-05
2.45923e-05
2.68199e-05
2.9146e-05
3.15177e-05
3.39916e-05
3.65298e-05
3.91251e-05
4.18276e-05
4.45664e-05
4.73746e-05
5.02461e-05
5.31551e-05
5.61593e-05
5.92006e-05
6.22954e-05
6.5457e-05
6.86512e-05
7.19052e-05
7.52006e-05
7.85234e-05
8.19037e-05
8.53048e-05
8.87337e-05
9.2195e-05
9.56692e-05
9.91629e-05
0.000102666
0.000106175
0.000109684
0.000113186
0.000116681
0.00012015
0.000123608
0.000127018
0.000130404
0.000133737
0.000137021
0.000140249
0.000143396
0.000146489
0.000149466
0.000152388
0.00015516
0.000157872
0.000160407
0.000162863
0.000165131
0.000167283
0.00016925
0.000171047
0.000172686
0.000174071
0.000175351
0.000176266
0.000177158
0.000177541
0.000177924
0.000177807
0.000177596
0.00017697
0.0001761
0.000174934
0.000173341
0.000171683
0.000169706
0.000167729
0.000164509
0.000161167
0.000157257
0.000153028
0.000148446
0.000143288
0.000137987
0.000131871
0.000125756
0.000118696
0.000111608
0.000107688
0.000103651
9.96128e-05
9.55751e-05
9.11113e-05
8.65663e-05
8.20213e-05
7.73243e-05
7.22366e-05
6.71489e-05
6.19886e-05
5.62957e-05
5.06028e-05
4.46111e-05
3.8239e-05
3.16633e-05
2.4564e-05
1.70023e-05
1.30789e-05
8.88705e-06
4.55191e-06
0
)


113
(
0
2.71046e-06
5.28896e-06
7.76763e-06
1.01819e-05
1.25508e-05
1.48859e-05
1.72002e-05
1.95071e-05
2.18099e-05
2.41152e-05
2.64269e-05
2.87436e-05
3.10772e-05
3.3419e-05
3.57725e-05
3.81425e-05
4.05198e-05
4.29134e-05
4.53158e-05
4.77262e-05
5.01484e-05
5.25742e-05
5.50064e-05
5.74407e-05
5.98762e-05
6.23096e-05
6.47396e-05
6.71648e-05
6.95784e-05
7.19848e-05
7.43745e-05
7.67472e-05
7.91084e-05
8.14353e-05
8.37443e-05
8.60292e-05
8.82722e-05
9.04925e-05
9.26711e-05
9.48052e-05
9.69104e-05
9.8951e-05
0.000100949
0.000102905
0.00010478
0.000106627
0.000108375
0.000110082
0.000111704
0.000113259
0.00011474
0.000116126
0.000117449
0.000118652
0.0001198
0.000120809
0.000121762
0.000122565
0.000123302
0.000123892
0.000124391
0.000124756
0.000124998
0.000125132
0.000125093
0.000124987
0.000124647
0.000124293
0.00012363
0.000122967
0.000122015
0.000121008
0.000119772
0.000118401
0.000116873
0.000115117
0.000113292
0.000111129
0.000108965
0.000106409
0.000103815
0.000100929
9.78792e-05
9.46474e-05
9.11182e-05
8.75127e-05
8.34746e-05
7.94364e-05
7.48694e-05
7.02861e-05
6.777e-05
6.51831e-05
6.25962e-05
6.00093e-05
5.71516e-05
5.42423e-05
5.1333e-05
4.83246e-05
4.50616e-05
4.17986e-05
3.84896e-05
3.48431e-05
3.11967e-05
2.73751e-05
2.33307e-05
1.9179e-05
1.47514e-05
1.01052e-05
7.71566e-06
5.21038e-06
2.64735e-06
0
)


113
(
0
2.59336e-06
5.08114e-06
7.46915e-06
9.77528e-06
1.20083e-05
1.41689e-05
1.62555e-05
1.82916e-05
2.02843e-05
2.22075e-05
2.40915e-05
2.59447e-05
2.77322e-05
2.94944e-05
3.12202e-05
3.28991e-05
3.45568e-05
3.61678e-05
3.77501e-05
3.93069e-05
4.08162e-05
4.23068e-05
4.37588e-05
4.5178e-05
4.65777e-05
4.7927e-05
4.92551e-05
5.05527e-05
5.18084e-05
5.30426e-05
5.42348e-05
5.53938e-05
5.65306e-05
5.76128e-05
5.86706e-05
5.9696e-05
6.06717e-05
6.16224e-05
6.25292e-05
6.33933e-05
6.42306e-05
6.50113e-05
6.5757e-05
6.64693e-05
6.712e-05
6.77504e-05
6.8311e-05
6.88449e-05
6.93217e-05
6.97569e-05
7.01451e-05
7.04772e-05
7.0772e-05
7.09993e-05
7.11948e-05
7.13155e-05
7.14056e-05
7.14185e-05
7.13967e-05
7.13015e-05
7.11614e-05
7.09564e-05
7.06916e-05
7.03768e-05
6.99805e-05
6.9554e-05
6.90198e-05
6.84799e-05
6.78008e-05
6.71217e-05
6.63145e-05
6.54828e-05
6.455e-05
6.35577e-05
6.24955e-05
6.13327e-05
6.0139e-05
5.87938e-05
5.74487e-05
5.59248e-05
5.43833e-05
5.2706e-05
5.09524e-05
4.91115e-05
4.71283e-05
4.51076e-05
4.2875e-05
4.06423e-05
3.81471e-05
3.56438e-05
3.42816e-05
3.28845e-05
3.14874e-05
3.00903e-05
2.85644e-05
2.70138e-05
2.54633e-05
2.38685e-05
2.21599e-05
2.04513e-05
1.87239e-05
1.68582e-05
1.49925e-05
1.3062e-05
1.10488e-05
8.99979e-06
6.85837e-06
4.64999e-06
3.52569e-06
2.36836e-06
1.19535e-06
0
)


113
(
0
3.30746e-07
6.53809e-07
9.68803e-07
1.27647e-06
1.57704e-06
1.86997e-06
2.15424e-06
2.43209e-06
2.70425e-06
2.96649e-06
3.22262e-06
3.47395e-06
3.71422e-06
3.94995e-06
4.17914e-06
4.39946e-06
4.61568e-06
4.82272e-06
5.02397e-06
5.22007e-06
5.40644e-06
5.58895e-06
5.76355e-06
5.93142e-06
6.09529e-06
6.24897e-06
6.39843e-06
6.54182e-06
6.67709e-06
6.80821e-06
6.93139e-06
7.04847e-06
7.16146e-06
7.26472e-06
7.36375e-06
7.45717e-06
7.54228e-06
7.6233e-06
7.6972e-06
7.76442e-06
7.82747e-06
7.88192e-06
7.93124e-06
7.97564e-06
8.01129e-06
8.04408e-06
8.06728e-06
8.0869e-06
8.09893e-06
8.10559e-06
8.1062e-06
8.0998e-06
8.08874e-06
8.06949e-06
8.0464e-06
8.01452e-06
7.97904e-06
7.93475e-06
7.88649e-06
7.83011e-06
7.76875e-06
7.7004e-06
7.62559e-06
7.54556e-06
7.457e-06
7.36535e-06
7.26275e-06
7.15958e-06
7.04266e-06
6.92573e-06
6.79652e-06
6.66498e-06
6.52405e-06
6.37761e-06
6.22493e-06
6.06325e-06
5.89892e-06
5.72162e-06
5.54432e-06
5.35244e-06
5.15911e-06
4.95533e-06
4.74567e-06
4.52973e-06
4.30354e-06
4.07485e-06
3.83208e-06
3.5893e-06
3.33059e-06
3.07139e-06
2.93574e-06
2.79818e-06
2.66062e-06
2.52307e-06
2.3792e-06
2.23412e-06
2.08905e-06
1.94205e-06
1.79009e-06
1.63814e-06
1.48544e-06
1.32739e-06
1.16933e-06
1.00901e-06
8.45811e-07
6.81476e-07
5.14212e-07
3.44982e-07
2.5978e-07
1.73662e-07
8.71245e-08
0
)

)


10
(

113
(
0
5.34627e-19
1.96643e-18
5.33845e-18
1.22728e-17
2.64239e-17
5.50219e-17
1.10501e-16
2.09406e-16
3.66747e-16
5.94793e-16
9.18634e-16
1.40696e-15
2.21365e-15
3.63248e-15
6.37131e-15
1.22993e-14
2.42436e-14
4.75822e-14
9.14963e-14
1.70914e-13
3.09199e-13
5.42523e-13
9.64601e-13
1.65297e-12
2.73759e-12
4.39212e-12
6.8463e-12
1.04004e-11
1.5449e-11
2.26419e-11
3.42406e-11
6.47627e-11
2.15176e-10
1.15518e-09
7.76371e-09
4.73428e-08
2.32978e-07
9.01662e-07
2.71117e-06
6.36422e-06
1.19322e-05
1.83696e-05
2.43894e-05
2.92093e-05
3.26891e-05
3.51153e-05
3.69495e-05
3.86565e-05
4.06451e-05
4.31509e-05
4.63595e-05
5.04276e-05
5.5511e-05
6.17633e-05
6.99183e-05
8.01515e-05
9.26548e-05
0.000107625
0.000126573
0.00014961
0.000175956
0.000206182
0.000240961
0.000277506
0.000315895
0.000353715
0.000390207
0.000423209
0.000451185
0.000476248
0.000492142
0.000505303
0.000511404
0.000513294
0.000511039
0.00050388
0.000494824
0.000481027
0.000466462
0.000448332
0.000429553
0.000408616
0.000386911
0.000363985
0.000340337
0.000316107
0.000291319
0.000266345
0.00024112
0.000215924
0.000203362
0.0001908
0.000178309
0.000165946
0.000153583
0.000141321
0.000129268
0.000117214
0.000105398
9.37846e-05
8.21923e-05
7.11479e-05
6.01036e-05
4.96454e-05
3.92955e-05
2.97338e-05
2.06291e-05
1.22988e-05
8.45248e-06
5.05179e-06
2.09769e-06
0
)


113
(
0
2.04362e-18
8.47502e-18
2.58425e-17
6.45181e-17
1.49879e-16
3.47924e-16
8.77902e-16
2.4833e-15
7.9837e-15
2.89607e-14
1.03785e-13
3.67754e-13
1.21584e-12
3.60389e-12
1.03505e-11
3.15709e-11
8.86256e-11
2.31048e-10
5.62748e-10
1.28683e-09
2.77577e-09
5.69041e-09
1.20167e-08
2.40165e-08
4.56012e-08
8.28802e-08
1.45074e-07
2.45933e-07
4.03206e-07
6.38137e-07
9.77995e-07
1.45459e-06
2.10424e-06
2.96313e-06
4.07194e-06
5.45258e-06
7.12246e-06
9.09011e-06
1.13485e-05
1.3887e-05
1.66893e-05
1.9735e-05
2.29959e-05
2.64624e-05
3.01525e-05
3.40854e-05
3.83307e-05
4.30005e-05
4.82415e-05
5.41666e-05
6.09456e-05
6.8741e-05
7.77031e-05
8.79573e-05
0.000100117
0.00011405
0.000129675
0.000146963
0.000166514
0.000187911
0.000210628
0.000234747
0.000260128
0.000285847
0.000311829
0.000337105
0.000361655
0.000384512
0.000405007
0.000424133
0.000438464
0.000451138
0.000459444
0.00046462
0.000466717
0.000464449
0.000460492
0.000451534
0.000441722
0.000427601
0.000412637
0.000394863
0.00037603
0.000355514
0.000333936
0.000311502
0.000288165
0.000264528
0.000240254
0.000215923
0.000203696
0.000191469
0.000179276
0.000167148
0.000155019
0.000142974
0.0001311
0.000119227
0.000107566
9.60859e-05
8.46255e-05
7.36643e-05
6.27031e-05
5.22771e-05
4.19498e-05
3.2335e-05
2.307e-05
1.44182e-05
1.03537e-05
6.61637e-06
3.17801e-06
0
)


113
(
0
4.59356e-11
1.5907e-10
4.13826e-10
8.90434e-10
1.7364e-09
3.18001e-09
5.55583e-09
9.38941e-09
1.52493e-08
2.40194e-08
3.66223e-08
5.44186e-08
7.92557e-08
1.13141e-07
1.58772e-07
2.21676e-07
3.04344e-07
4.10355e-07
5.44599e-07
7.12609e-07
9.20427e-07
1.17664e-06
1.50112e-06
1.8949e-06
2.36515e-06
2.92382e-06
3.58137e-06
4.35367e-06
5.25798e-06
6.30707e-06
7.52139e-06
8.91431e-06
1.05113e-05
1.23191e-05
1.43749e-05
1.66941e-05
1.93112e-05
2.2237e-05
2.55213e-05
2.91672e-05
3.32261e-05
3.77546e-05
4.27144e-05
4.82309e-05
5.42252e-05
6.08202e-05
6.79898e-05
7.58262e-05
8.43584e-05
9.35235e-05
0.000103405
0.000113921
0.000125053
0.000136867
0.000149389
0.00016251
0.000176107
0.000190114
0.000204592
0.000219332
0.000234208
0.000249181
0.000264022
0.000278658
0.000292987
0.00030656
0.00031965
0.000331758
0.000342733
0.000353051
0.000361206
0.000368603
0.000374005
0.000377886
0.00038027
0.00038027
0.000379347
0.000375332
0.000370743
0.000362944
0.000354389
0.000343318
0.000331128
0.000317156
0.000301784
0.000285286
0.000267182
0.000248542
0.000228457
0.000208049
0.000197474
0.000186899
0.00017622
0.000165354
0.000154489
0.000143571
0.000132546
0.000121521
0.000110499
9.94782e-05
8.84719e-05
7.78266e-05
6.71814e-05
5.68264e-05
4.6525e-05
3.66309e-05
2.69843e-05
1.77564e-05
1.3312e-05
9.04535e-06
4.76849e-06
0
)


113
(
0
1.74423e-08
4.04684e-08
7.32427e-08
1.16971e-07
1.74165e-07
2.47811e-07
3.41196e-07
4.57877e-07
6.01647e-07
7.76552e-07
9.86932e-07
1.23764e-06
1.53452e-06
1.88374e-06
2.29321e-06
2.77693e-06
3.33042e-06
3.96285e-06
4.68615e-06
5.50833e-06
6.43224e-06
7.46832e-06
8.67042e-06
1.00017e-05
1.14739e-05
1.31156e-05
1.49392e-05
1.69489e-05
1.91555e-05
2.15749e-05
2.42188e-05
2.71006e-05
3.02233e-05
3.36503e-05
3.73088e-05
4.12816e-05
4.55755e-05
5.00858e-05
5.49544e-05
6.01584e-05
6.56641e-05
7.14988e-05
7.76783e-05
8.41214e-05
9.09606e-05
9.80389e-05
0.000105426
0.000113107
0.00012111
0.000129315
0.000137831
0.000146525
0.000155321
0.00016428
0.000173384
0.000182576
0.000191795
0.000201007
0.000210146
0.000219153
0.000228028
0.000236726
0.000245036
0.000253074
0.000260756
0.000267826
0.000274543
0.000280582
0.000285922
0.000290857
0.000294574
0.000297875
0.000300085
0.000301481
0.000302077
0.000301271
0.000299923
0.000296938
0.000293631
0.000288403
0.000282719
0.00027552
0.000267491
0.000258139
0.000247606
0.00023612
0.000223158
0.000209705
0.000195009
0.000179904
0.000171876
0.000163847
0.000155627
0.000147058
0.00013849
0.000129792
0.000120825
0.000111858
0.000102752
9.35288e-05
8.43013e-05
7.49701e-05
6.56389e-05
5.63431e-05
4.70546e-05
3.79124e-05
2.88366e-05
1.98031e-05
1.52628e-05
1.05611e-05
5.58387e-06
0
)


113
(
0
2.4627e-07
5.04371e-07
8.03187e-07
1.14929e-06
1.55044e-06
2.01329e-06
2.54324e-06
3.14497e-06
3.82278e-06
4.58087e-06
5.42348e-06
6.35485e-06
7.37955e-06
8.50205e-06
9.73502e-06
1.10913e-05
1.25628e-05
1.41541e-05
1.58701e-05
1.77159e-05
1.96964e-05
2.1817e-05
2.41051e-05
2.65651e-05
2.91939e-05
3.20201e-05
3.49878e-05
3.80846e-05
4.1352e-05
4.47649e-05
4.83182e-05
5.21197e-05
5.59975e-05
6.01424e-05
6.4359e-05
6.87689e-05
7.33595e-05
7.80561e-05
8.29686e-05
8.79344e-05
9.31902e-05
9.83564e-05
0.000103812
0.000109312
0.000114923
0.00012062
0.00012639
0.000132258
0.000138149
0.00014404
0.000149952
0.00015589
0.000161826
0.000167715
0.000173477
0.000179174
0.000184773
0.000190254
0.000195549
0.000200657
0.000205584
0.000210273
0.000214598
0.000218719
0.000222591
0.000225987
0.000229129
0.000231801
0.000233955
0.000235808
0.000236882
0.000237644
0.000237567
0.000236939
0.000235771
0.00023393
0.000231827
0.0002288
0.000225587
0.000221241
0.000216603
0.000210989
0.000204876
0.000197972
0.000190356
0.000182166
0.000173039
0.000163599
0.000152985
0.000142041
0.000136186
0.000130331
0.000124307
0.000117978
0.000111649
0.000105195
9.84801e-05
9.17654e-05
8.48965e-05
7.78963e-05
7.08885e-05
6.36917e-05
5.64948e-05
4.91655e-05
4.18116e-05
3.42646e-05
2.65554e-05
1.85244e-05
1.43501e-05
9.89795e-06
5.16883e-06
0
)


113
(
0
1.00185e-06
1.9643e-06
2.9529e-06
3.99333e-06
5.10269e-06
6.29267e-06
7.57027e-06
8.93919e-06
1.04011e-05
1.19567e-05
1.36061e-05
1.53493e-05
1.71865e-05
1.91176e-05
2.11497e-05
2.32883e-05
2.55216e-05
2.78492e-05
3.02711e-05
3.27871e-05
3.53969e-05
3.81003e-05
4.09105e-05
4.38109e-05
4.68003e-05
4.98774e-05
5.30402e-05
5.62869e-05
5.9615e-05
6.3022e-05
6.65048e-05
7.00602e-05
7.36883e-05
7.74522e-05
8.12062e-05
8.50155e-05
8.88749e-05
9.27794e-05
9.67236e-05
0.000100702
0.000104709
0.000108739
0.000112922
0.000117991
0.000122575
0.000126948
0.000131277
0.000135396
0.000139469
0.000143371
0.000147148
0.000150765
0.000154189
0.000157417
0.000160365
0.000162968
0.000164584
0.000165461
0.000168133
0.000170617
0.000172944
0.000175084
0.000176944
0.000178631
0.000180098
0.00018131
0.000182326
0.000182915
0.000183205
0.00018332
0.000182931
0.000182379
0.0001814
0.00018011
0.000178512
0.000176435
0.000174172
0.000171264
0.000168235
0.000164517
0.000160619
0.000156125
0.000151325
0.000146039
0.000140311
0.000134228
0.00012756
0.000120697
0.000113097
0.000105288
0.000101141
9.69939e-05
9.27368e-05
8.82809e-05
8.3825e-05
7.92795e-05
7.45488e-05
6.98181e-05
6.49505e-05
5.99663e-05
5.49723e-05
4.97299e-05
4.44875e-05
3.89926e-05
3.3451e-05
2.75504e-05
2.14274e-05
1.49237e-05
1.15135e-05
7.88203e-06
4.06736e-06
0
)


113
(
0
2.02782e-06
3.93119e-06
5.77767e-06
7.6107e-06
9.45387e-06
1.13243e-05
1.32338e-05
1.51897e-05
1.71961e-05
1.92551e-05
2.13674e-05
2.35328e-05
2.57508e-05
2.80205e-05
3.03441e-05
3.27226e-05
3.51478e-05
3.7618e-05
4.01314e-05
4.2686e-05
4.52801e-05
4.79117e-05
5.03269e-05
5.29503e-05
5.56261e-05
5.83223e-05
6.10357e-05
6.37634e-05
6.65021e-05
6.92483e-05
7.19987e-05
7.47496e-05
7.74973e-05
8.02381e-05
8.29675e-05
8.56818e-05
8.83769e-05
9.1049e-05
9.36936e-05
9.63065e-05
9.88822e-05
0.000101417
0.000103905
0.000106344
0.000108728
0.000111053
0.000113315
0.000115503
0.000117613
0.000119644
0.000121589
0.000123446
0.000125211
0.000126882
0.000128426
0.000129856
0.000131177
0.000132391
0.000133453
0.000134371
0.000135173
0.000135836
0.000136301
0.000136646
0.000136839
0.000136808
0.000136662
0.000136303
0.000135748
0.00013508
0.000134092
0.000133003
0.000131647
0.000130102
0.00012837
0.00012635
0.00012422
0.000122054
0.000119817
0.000116757
0.000113598
0.000110111
0.000106457
0.000102537
9.83781e-05
9.40262e-05
8.93537e-05
8.45743e-05
7.9379e-05
7.40584e-05
7.12521e-05
6.84459e-05
6.55658e-05
6.25521e-05
5.95384e-05
5.64545e-05
5.32256e-05
4.99966e-05
4.66421e-05
4.31804e-05
3.9709e-05
3.59875e-05
3.22661e-05
2.82958e-05
2.42797e-05
1.9947e-05
1.54446e-05
1.06697e-05
8.17839e-06
5.55793e-06
2.84076e-06
0
)


113
(
0
2.58839e-06
5.02744e-06
7.35143e-06
9.59745e-06
1.17823e-05
1.39199e-05
1.60219e-05
1.80976e-05
2.0154e-05
2.21961e-05
2.42277e-05
2.62512e-05
2.82684e-05
3.02803e-05
3.22873e-05
3.42893e-05
3.62864e-05
3.8278e-05
4.02635e-05
4.22417e-05
4.42115e-05
4.61716e-05
4.81185e-05
5.00523e-05
5.19713e-05
5.38737e-05
5.57577e-05
5.76215e-05
5.94631e-05
6.12804e-05
6.30716e-05
6.48344e-05
6.65667e-05
6.82666e-05
6.99308e-05
7.15582e-05
7.31469e-05
7.46949e-05
7.62e-05
7.76603e-05
7.90719e-05
8.04336e-05
8.17438e-05
8.30006e-05
8.4202e-05
8.53462e-05
8.64312e-05
8.74508e-05
8.84032e-05
8.92897e-05
9.0108e-05
9.08571e-05
9.15366e-05
9.21464e-05
9.26639e-05
9.31016e-05
9.34648e-05
9.37553e-05
9.39447e-05
9.40418e-05
9.40645e-05
9.40003e-05
9.38147e-05
9.35564e-05
9.32074e-05
9.27279e-05
9.21815e-05
9.15136e-05
9.07365e-05
8.9896e-05
8.88804e-05
8.781e-05
8.65974e-05
8.52845e-05
8.38729e-05
8.23121e-05
8.06936e-05
7.888e-05
7.70301e-05
7.49755e-05
7.28682e-05
7.05855e-05
6.82122e-05
6.56948e-05
6.30434e-05
6.02841e-05
5.73367e-05
5.43267e-05
5.10568e-05
4.77029e-05
4.59278e-05
4.41528e-05
4.23247e-05
4.04006e-05
3.84765e-05
3.64998e-05
3.44144e-05
3.2329e-05
3.01494e-05
2.78894e-05
2.56223e-05
2.31757e-05
2.07292e-05
1.81174e-05
1.54755e-05
1.26431e-05
9.71849e-06
6.65131e-06
5.06643e-06
3.42237e-06
1.73663e-06
0
)


113
(
0
2.06978e-06
4.04689e-06
5.93736e-06
7.75733e-06
9.51124e-06
1.12033e-05
1.28384e-05
1.44212e-05
1.59559e-05
1.74464e-05
1.88957e-05
2.03064e-05
2.16806e-05
2.30202e-05
2.43243e-05
2.55926e-05
2.68304e-05
2.80384e-05
2.92173e-05
3.03676e-05
3.14896e-05
3.25836e-05
3.36456e-05
3.46804e-05
3.56879e-05
3.66681e-05
3.76209e-05
3.85462e-05
3.94437e-05
4.03133e-05
4.11547e-05
4.19676e-05
4.27518e-05
4.35068e-05
4.42316e-05
4.49267e-05
4.55918e-05
4.62267e-05
4.6831e-05
4.74042e-05
4.79449e-05
4.84533e-05
4.89293e-05
4.93727e-05
4.97829e-05
5.01598e-05
5.05031e-05
5.08097e-05
5.10798e-05
5.13147e-05
5.15138e-05
5.16772e-05
5.18052e-05
5.18982e-05
5.19458e-05
5.19547e-05
5.1928e-05
5.18668e-05
5.17581e-05
5.16069e-05
5.14216e-05
5.11967e-05
5.09171e-05
5.0605e-05
5.02526e-05
4.98423e-05
4.94026e-05
4.89095e-05
4.83684e-05
4.77995e-05
4.71536e-05
4.64835e-05
4.57506e-05
4.49729e-05
4.41511e-05
4.32618e-05
4.23463e-05
4.13406e-05
4.03178e-05
3.9198e-05
3.80524e-05
3.68211e-05
3.55442e-05
3.41945e-05
3.27751e-05
3.12996e-05
2.97237e-05
2.81144e-05
2.63643e-05
2.45688e-05
2.3618e-05
2.26672e-05
2.16883e-05
2.06586e-05
1.96289e-05
1.85725e-05
1.74611e-05
1.63496e-05
1.51933e-05
1.39988e-05
1.28012e-05
1.15247e-05
1.02482e-05
8.90515e-06
7.54999e-06
6.12456e-06
4.6678e-06
3.16387e-06
2.3957e-06
1.60981e-06
8.11974e-07
0
)


113
(
0
2.33064e-07
4.60575e-07
6.82313e-07
8.98891e-07
1.11021e-06
1.31618e-06
1.51682e-06
1.71218e-06
1.90235e-06
2.08744e-06
2.26753e-06
2.44271e-06
2.61304e-06
2.77856e-06
2.939e-06
3.09411e-06
3.24454e-06
3.39033e-06
3.53149e-06
3.66805e-06
3.80002e-06
3.92741e-06
4.04953e-06
4.16715e-06
4.2803e-06
4.38896e-06
4.49316e-06
4.59291e-06
4.6882e-06
4.77904e-06
4.86546e-06
4.94745e-06
5.02502e-06
5.09818e-06
5.16685e-06
5.23114e-06
5.2911e-06
5.34674e-06
5.39806e-06
5.44508e-06
5.48768e-06
5.52593e-06
5.55988e-06
5.58957e-06
5.615e-06
5.63619e-06
5.65315e-06
5.6656e-06
5.67358e-06
5.67733e-06
5.67681e-06
5.6721e-06
5.66327e-06
5.65041e-06
5.63237e-06
5.60999e-06
5.58366e-06
5.5535e-06
5.51817e-06
5.47823e-06
5.43465e-06
5.38685e-06
5.3333e-06
5.27637e-06
5.21525e-06
5.14823e-06
5.07822e-06
5.00283e-06
4.92267e-06
4.83975e-06
4.74933e-06
4.65659e-06
4.55783e-06
4.45487e-06
4.34779e-06
4.23453e-06
4.11888e-06
3.99523e-06
3.87009e-06
3.73662e-06
3.60103e-06
3.45837e-06
3.31214e-06
3.16019e-06
3.00306e-06
2.84177e-06
2.67349e-06
2.50289e-06
2.32317e-06
2.14072e-06
2.04634e-06
1.95195e-06
1.85603e-06
1.75733e-06
1.65863e-06
1.5586e-06
1.45583e-06
1.35306e-06
1.24825e-06
1.14172e-06
1.03505e-06
9.25134e-07
8.15214e-07
7.02782e-07
5.89895e-07
4.74559e-07
3.58204e-07
2.40347e-07
1.8092e-07
1.20972e-07
6.06832e-08
0
)

)


10
(

113
(
0
8.66019e-17
2.69692e-16
5.98711e-16
1.16154e-15
2.17742e-15
4.0056e-15
7.18642e-15
1.21235e-14
1.87643e-14
2.68018e-14
3.58917e-14
4.6375e-14
5.95154e-14
7.76692e-14
1.08433e-13
1.585e-13
2.35e-13
3.44083e-13
5.34917e-13
8.24692e-13
1.2675e-12
1.93667e-12
2.87615e-12
4.10692e-12
6.0375e-12
8.71667e-12
1.25333e-11
1.87e-11
3.11417e-11
6.85583e-11
2.946e-10
1.528e-09
7.51e-09
3.36636e-08
1.39545e-07
4.95e-07
1.50455e-06
3.95e-06
9.44091e-06
1.85073e-05
3.16e-05
4.55273e-05
5.978e-05
7.21182e-05
8.24818e-05
9.14818e-05
9.96667e-05
0.000107667
0.000116
0.000126769
0.000139917
0.000155462
0.000173
0.000193
0.000216429
0.000242143
0.00027
0.000298
0.000325437
0.000352312
0.000376937
0.000400187
0.000420813
0.000436882
0.000451
0.000458222
0.000464333
0.000466
0.000465444
0.000461556
0.000455579
0.000448211
0.000438263
0.000427211
0.0004146
0.0004016
0.0003866
0.0003711
0.0003552
0.0003392
0.000322
0.0003045
0.000285842
0.000266895
0.00024925
0.00023175
0.0002125
0.000193111
0.000174222
0.000155529
0.000146412
0.000137294
0.00012825
0.0001195
0.00011075
0.000102
9.35333e-05
8.50667e-05
7.66e-05
6.77667e-05
5.89333e-05
5.07091e-05
4.28909e-05
3.52667e-05
2.79333e-05
2.08857e-05
1.43333e-05
9e-06
6.46875e-06
3.76e-06
1.595e-06
0
)


113
(
0
1.93998e-16
6.39509e-16
1.50609e-15
2.98279e-15
5.37864e-15
9.17405e-15
1.53847e-14
2.74154e-14
5.8934e-14
1.62063e-13
5.09204e-13
1.54963e-12
4.45942e-12
1.39721e-11
4.35795e-11
1.25975e-10
3.35208e-10
7.52207e-10
1.75667e-09
4.31185e-09
9.45544e-09
1.95226e-08
3.80306e-08
7.04245e-08
1.34155e-07
2.44532e-07
4.24319e-07
7.03708e-07
1.12113e-06
1.75836e-06
2.69228e-06
4.01348e-06
5.77822e-06
8.06036e-06
1.09925e-05
1.46294e-05
1.904e-05
2.42635e-05
3.0406e-05
3.73692e-05
4.51023e-05
5.36257e-05
6.285e-05
7.28107e-05
8.34385e-05
9.47752e-05
0.000106873
0.000119699
0.000133322
0.000148093
0.000163724
0.000180337
0.000197809
0.00021625
0.00023551
0.000255212
0.000275273
0.000295374
0.000315109
0.000334477
0.00035239
0.00036941
0.000384723
0.000397785
0.000409883
0.000418047
0.000425355
0.000429242
0.000431448
0.000431131
0.000428438
0.00042416
0.000417401
0.000409578
0.000399353
0.000388527
0.000375759
0.000362507
0.000347789
0.000332705
0.000316549
0.000300125
0.000282955
0.000265599
0.000247714
0.000229769
0.000211552
0.000193304
0.000175043
0.000156842
0.00014781
0.000138779
0.000129784
0.000120932
0.00011208
0.000103228
9.46312e-05
8.60341e-05
7.7437e-05
6.91657e-05
6.08944e-05
5.28779e-05
4.50314e-05
3.73981e-05
3.00847e-05