/*--------------------------------*- C++ -*----------------------------------*\
| =========                 |                                                 |
| \\      /  F ield         | OpenFOAM: The Open Source CFD Toolbox           |
|  \\    /   O peration     | Version:  2.3.0                                 |
|   \\  /    A nd           | Web:      www.OpenFOAM.org                      |
|    \\/     M anipulation  |                                                 |
\*---------------------------------------------------------------------------*/
FoamFile
{
    version     2.0;
    format      ascii;
    class       dictionary;
    location    "constant";
    object      CH4;
}
// * * * * * * * * * * * * * * * * * * * * * * * * * * * * * * * * * * * * * //

CH4_table
13
(

10
(

113
(
0
9.37417e-28
1.83988e-27
2.7597e-27
3.71509e-27
4.7669e-27
6.01294e-27
7.76759e-27
1.04188e-26
1.41748e-26
2.23868e-26
3.93897e-26
6.33e-26
1.4047e-25
2.96267e-25
5.65211e-25
1.4882e-24
3.38616e-24
9.24591e-24
3.45982e-23
7.72362e-23
3.98421e-22
1.4199e-21
4.34644e-21
2.02148e-20
4.82677e-20
3.16653e-19
4.68323e-18
1.49472e-17
6.02157e-16
1.23257e-14
6.54007e-14
2.1708e-12
8.97258e-12
1.81602e-10
2.92532e-09
9.07722e-09
1.27278e-07
7.08532e-07
2.48828e-06
1.16364e-05
2.83317e-05
7.60957e-05
0.000156455
0.000268132
0.00044526
0.000643866
0.000915374
0.00121416
0.00157092
0.00197364
0.00242818
0.00294438
0.00350167
0.00413909
0.00481421
0.00557238
0.00636446
0.00724667
0.00816937
0.00919314
0.0102789
0.0114318
0.0126467
0.013963
0.0154444
0.0169835
0.0187266
0.0204855
0.0226218
0.0247582
0.0273045
0.029929
0.0329149
0.0361131
0.0395558
0.0433504
0.0472221
0.0514699
0.0557177
0.0602291
0.0647665
0.0693451
0.0739469
0.0785892
0.0832978
0.0880018
0.0926807
0.0973596
0.101909
0.106455
0.108939
0.11149
0.114041
0.116592
0.118888
0.121135
0.123382
0.125709
0.128241
0.130772
0.133269
0.135507
0.137746
0.140222
0.143
0.145691
0.14816
0.150768
0.152114
0.153543
0.15481
0.156
)


113
(
0
5.23534e-23
1.99201e-21
5.04806e-20
5.48352e-19
5.22021e-18
2.86257e-17
2.38698e-16
1.84669e-15
6.73139e-15
3.82888e-14
1.97701e-13
4.5757e-13
2.45885e-12
9.28279e-12
2.30466e-11
9.15229e-11
2.28659e-10
6.34236e-10
1.83937e-09
3.75355e-09
1.12633e-08
2.4653e-08
5.30086e-08
1.18395e-07
2.0782e-07
4.54465e-07
8.68276e-07
1.52264e-06
2.88813e-06
4.8128e-06
8.17226e-06
1.36974e-05
2.07295e-05
3.37572e-05
5.10371e-05
7.39537e-05
0.000109875
0.000153945
0.000213841
0.000294025
0.000387913
0.000515456
0.000667731
0.000843768
0.00107024
0.00131418
0.00162166
0.00195564
0.00234589
0.00278004
0.00326368
0.00380924
0.00439609
0.00506147
0.00576381
0.00655829
0.00739041
0.00832554
0.00930694
0.0103971
0.0115539
0.0128197
0.0141862
0.0156493
0.0172699
0.0189578
0.0208842
0.0228251
0.0251125
0.0273999
0.0300302
0.0327258
0.0356925
0.0388184
0.0421192
0.0456718
0.0492891
0.0532219
0.0571547
0.0613631
0.0655989
0.0699719
0.074422
0.0789223
0.0835043
0.0880983
0.0927598
0.0974213
0.102136
0.106852
0.109226
0.111605
0.113983
0.116362
0.118755
0.121151
0.123546
0.125949
0.128371
0.130793
0.13322
0.135687
0.138153
0.140644
0.143166
0.145705
0.148289
0.150908
0.152226
0.153526
0.154782
0.156
)


113
(
0
5.79138e-10
2.06816e-09
5.53684e-09
1.23797e-08
2.4659e-08
4.63164e-08
8.65484e-08
1.5193e-07
2.43752e-07
4.0656e-07
6.53463e-07
9.6644e-07
1.5292e-06
2.26399e-06
3.24635e-06
4.7783e-06
6.62962e-06
9.36942e-06
1.29729e-05
1.73422e-05
2.38497e-05
3.14555e-05
4.15114e-05
5.45858e-05
6.94827e-05
9.04898e-05
0.000114727
0.000143612
0.000181201
0.000223634
0.000276105
0.000338742
0.000408286
0.000497834
0.000597337
0.000710039
0.000847662
0.00099845
0.00117294
0.00137468
0.0015939
0.00185147
0.00213612
0.00244677
0.00280885
0.0031889
0.00363517
0.00410768
0.00463593
0.00521141
0.00584016
0.00653495
0.00727378
0.0081005
0.00896858
0.00994133
0.0109568
0.0120898
0.0132755
0.0145805
0.0159587
0.0174489
0.0190426
0.0207272
0.0225601
0.0244502
0.0265436
0.0286483
0.0310221
0.0333959
0.0360152
0.0386813
0.0415363
0.0445024
0.0475898
0.0508518
0.0541623
0.0577097
0.0612571
0.0650512
0.0688697
0.0728381
0.0768908
0.0810206
0.0852763
0.0895566
0.0939763
0.0983961
0.102932
0.107471
0.109782
0.112106
0.11443
0.116754
0.119117
0.121488
0.123858
0.126252
0.128706
0.13116
0.133615
0.136073
0.138531
0.141003
0.143493
0.145985
0.148479
0.150941
0.152163
0.153367
0.154599
0.156
)


113
(
0
6.32665e-07
1.49145e-06
2.73947e-06
4.44696e-06
6.69753e-06
9.65522e-06
1.36475e-05
1.85984e-05
2.44666e-05
3.23321e-05
4.17867e-05
5.24898e-05
6.70495e-05
8.34717e-05
0.000102574
0.000126432
0.000152743
0.000185224
0.000222155
0.000263032
0.000313597
0.000368395
0.000432177
0.000506017
0.00058584
0.000681606
0.000785784
0.000902068
0.00103584
0.00117934
0.001343
0.00152552
0.0017207
0.00194578
0.00218733
0.00245072
0.00274969
0.00306676
0.00341579
0.00379874
0.00420391
0.00466037
0.00514806
0.00566574
0.00624428
0.00684353
0.00751661
0.00821719
0.00897621
0.00978717
0.0106567
0.011591
0.0125685
0.0136326
0.0147376
0.0159426
0.0171887
0.0185403
0.0199395
0.0214433
0.0230112
0.0246722
0.0264189
0.0282387
0.0301776
0.0321612
0.0343034
0.036454
0.0388071
0.0411601
0.0436927
0.0462595
0.0489694
0.0517634
0.0546457
0.0576553
0.0607011
0.0639238
0.0671465
0.070589
0.0740532
0.0776282
0.0812657
0.0850156
0.088949
0.092915
0.0970652
0.101215
0.105454
0.109695
0.111873
0.114068
0.116264
0.11846
0.12071
0.122971
0.125232
0.127507
0.12982
0.132132
0.134449
0.136792
0.139135
0.141476
0.143815
0.146149
0.148468
0.150804
0.151981
0.153217
0.154525
0.156
)


113
(
0
1.39275e-05
2.88343e-05
4.6355e-05
6.69885e-05
9.10893e-05
0.000119354
0.000152995
0.000191096
0.000233306
0.00028357
0.000339534
0.000399977
0.000472247
0.000550088
0.000635942
0.000734196
0.000838533
0.000957446
0.00108676
0.0012253
0.00138349
0.00155014
0.00173464
0.00193851
0.00215382
0.00239598
0.00265159
0.00292659
0.00322787
0.00354312
0.00388618
0.00425434
0.00463932
0.0050627
0.00550667
0.00597791
0.00648997
0.00702245
0.00759064
0.0082001
0.00883487
0.00951934
0.010237
0.0109867
0.0117967
0.0126267
0.013525
0.014452
0.0154399
0.0164715
0.0175524
0.0186901
0.0198657
0.0211112
0.0223896
0.0237577
0.0251626
0.0266559
0.028189
0.0298051
0.031472
0.0332142
0.0350261
0.0368962
0.0388614
0.0408544
0.0429461
0.0450463
0.0473489
0.0496515
0.0521536
0.0546938
0.057319
0.0599941
0.0627842
0.0657398
0.0687026
0.0717008
0.0746991
0.0778606
0.0810383
0.0843304
0.0876868
0.0911098
0.0946416
0.0981989
0.1019
0.105601
0.109457
0.113317
0.1153
0.117301
0.119301
0.121301
0.123348
0.125403
0.127458
0.129523
0.131612
0.133701
0.135791
0.137895
0.139998
0.14211
0.144232
0.146371
0.148554
0.150825
0.15199
0.153243
0.154561
0.156
)


113
(
0
8.49627e-05
0.000168519
0.000256074
0.000349995
0.000451581
0.000562627
0.000685775
0.000818645
0.000960353
0.0011186
0.00128783
0.00146571
0.00166497
0.00187369
0.00209601
0.00233814
0.00258972
0.00286327
0.00315166
0.0034532
0.00378134
0.00412049
0.00448259
0.00486538
0.00526048
0.00568864
0.00613118
0.00659441
0.00708662
0.00759394
0.00813082
0.00869127
0.00926829
0.00991856
0.0105736
0.0112351
0.0119322
0.0126472
0.0133935
0.0141696
0.0149645
0.0157984
0.0162694
0.016392
0.0173729
0.0185308
0.0197972
0.0210836
0.0224125
0.0238265
0.0253368
0.0268925
0.0284787
0.0302208
0.0320363
0.0336541
0.0351912
0.0368061
0.0384561
0.0401723
0.0419292
0.0437442
0.0456129
0.0475259
0.0495112
0.0515249
0.0536399
0.0557591
0.057979
0.0601989
0.0625279
0.0648777
0.067311
0.0697934
0.0723314
0.0749492
0.0775906
0.0803465
0.0831025
0.0859857
0.0888814
0.0918663
0.0949014
0.0979879
0.101158
0.104348
0.107645
0.110942
0.114348
0.117757
0.119496
0.121246
0.122997
0.124747
0.126527
0.128312
0.130098
0.131892
0.13371
0.135528
0.137351
0.139214
0.141077
0.142974
0.144914
0.146889
0.148953
0.151123
0.152242
0.153438
0.15468
0.156
)


113
(
0
0.00026611
0.000521042
0.000773119
0.00102778
0.00128799
0.00155664
0.00183755
0.00212877
0.00242949
0.00274822
0.00307885
0.00341882
0.00378136
0.00415352
0.00453952
0.00494481
0.0053591
0.00579378
0.00624156
0.00670095
0.00718265
0.00784934
0.00903551
0.00987572
0.0105221
0.0112058
0.0119055
0.0126282
0.0133829
0.0141541
0.0149577
0.0157869
0.0166333
0.0175219
0.0184293
0.0193619
0.0203327
0.0213228
0.0223464
0.0234026
0.0244793
0.0255987
0.0267444
0.0279153
0.029132
0.0303638
0.0316471
0.03295
0.0342946
0.0356692
0.0370778
0.0385265
0.040002
0.0415251
0.0430707
0.0446685
0.0462877
0.04796
0.0496562
0.0514021
0.0531786
0.0549983
0.0568579
0.0587503
0.0606959
0.0626609
0.0646948
0.0667322
0.0688563
0.0709804
0.0731817
0.0753977
0.0776721
0.0799809
0.0823279
0.0847299
0.0871851
0.0898995
0.0926139
0.0951728
0.0977163
0.100319
0.102955
0.105623
0.108346
0.111081
0.113884
0.116687
0.119564
0.122442
0.123911
0.125388
0.126866
0.128343
0.129857
0.131378
0.1329
0.134437
0.136016
0.137595
0.139183
0.140842
0.142502
0.144208
0.145975
0.147778
0.149674
0.151659
0.152678
0.153751
0.154853
0.156
)


113
(
0
0.000656001
0.00128916
0.00190756
0.00251898
0.00312789
0.00373805
0.00435437
0.00497772
0.00560803
0.00625373
0.00691085
0.00757695
0.00826657
0.00896684
0.00968246
0.0104205
0.0111691
0.0119424
0.0127319
0.0135359
0.0143684
0.0152125
0.0160805
0.0169694
0.0178709
0.0188049
0.0197527
0.0207204
0.0217152
0.022724
0.0237598
0.0248168
0.025888
0.0269933
0.0281139
0.0292544
0.0304251
0.0316108
0.0328227
0.0340594
0.0353117
0.0365964
0.0379005
0.0392235
0.0405801
0.0419477
0.0433526
0.0447715
0.0462201
0.04769
0.0491837
0.0507052
0.0522452
0.0538177
0.0554056
0.0570286
0.0586659
0.0603382
0.0620264
0.0637467
0.0654868
0.0672544
0.0690473
0.0708605
0.0727067
0.0745648
0.0764646
0.0783665
0.0803197
0.0822729
0.0842707
0.0862769
0.0883162
0.0903749
0.0924549
0.0945654
0.0966848
0.098847
0.101009
0.103219
0.105433
0.107681
0.109948
0.112236
0.11456
0.116892
0.119277
0.121663
0.124119
0.126577
0.12784
0.129114
0.130388
0.131662
0.132983
0.134313
0.135644
0.136994
0.138394
0.139795
0.141205
0.142691
0.144176
0.145704
0.147285
0.148894
0.150572
0.152308
0.153194
0.154111
0.155044
0.156
)


113
(
0
0.00122635
0.00242429
0.00359723
0.00475134
0.00589009
0.0070152
0.00812875
0.00923597
0.0103383
0.0114353
0.0125311
0.013626
0.0147221
0.01582
0.0169202
0.0180259
0.0191345
0.0202506
0.0213724
0.0224992
0.0236373
0.0247801
0.025933
0.0270954
0.0282633
0.0294465
0.0306364
0.0318359
0.0330489
0.0342688
0.0355025
0.036747
0.0379988
0.0392683
0.0405457
0.0418335
0.0431371
0.0444485
0.0457735
0.0471115
0.0484576
0.0498205
0.0511934
0.0525759
0.0539757
0.0553811
0.0568054
0.0582367
0.0596829
0.0611397
0.0626083
0.0640906
0.0655821
0.0670894
0.0686043
0.0701362
0.071675
0.0732309
0.0747944
0.0763735
0.0779623
0.0795646
0.0811794
0.0828043
0.0844458
0.0860934
0.0877626
0.089433
0.0911312
0.0928293
0.0945531
0.0962819
0.0980311
0.0997925
0.101568
0.103365
0.105169
0.107005
0.108842
0.110719
0.1126
0.114514
0.116447
0.118402
0.120394
0.122397
0.124458
0.12652
0.12866
0.130803
0.13191
0.133028
0.134146
0.135264
0.136426
0.137597
0.138767
0.139954
0.141182
0.142409
0.143644
0.144931
0.146218
0.147531
0.148876
0.150235
0.151631
0.153055
0.153776
0.15451
0.15525
0.156
)


113
(
0
0.00164106
0.00327406
0.00489876
0.00651611
0.00812646
0.00972944
0.0113243
0.0129133
0.0144972
0.0160725
0.0176426
0.0192087
0.020766
0.0223198
0.0238687
0.0254111
0.0269507
0.028484
0.0300136
0.03154
0.0330605
0.0345788
0.0360927
0.0376031
0.0391115
0.0406151
0.0421169
0.0436161
0.0451121
0.0466067
0.0480985
0.0495885
0.0510772
0.0525635
0.0540489
0.055533
0.0570158
0.0584979
0.0599792
0.0614599
0.0629403
0.0644203
0.0659004
0.0673805
0.0688611
0.0703418
0.0718235
0.0733057
0.0747891
0.0762734
0.077759
0.0792464
0.0807349
0.0822259
0.083718
0.0852132
0.0867098
0.0882099
0.0897116
0.0912172
0.092725
0.0942365
0.0957513
0.0972691
0.0987918
0.100316
0.101848
0.10338
0.104921
0.106463
0.108013
0.109565
0.111125
0.112689
0.114259
0.115835
0.117415
0.119006
0.120597
0.122202
0.123808
0.125425
0.127048
0.128677
0.130317
0.13196
0.133619
0.135277
0.136954
0.138631
0.139477
0.140325
0.141173
0.142021
0.142877
0.143735
0.144592
0.145452
0.146318
0.147184
0.148051
0.148925
0.149799
0.150676
0.151556
0.152439
0.153325
0.154214
0.154659
0.155105
0.155552
0.156
)

)


10
(

113
(
0
8.02245e-25
1.58205e-24
2.35873e-24
3.14755e-24
3.97078e-24
4.86886e-24
5.91791e-24
7.26376e-24
9.19079e-24
1.2258e-23
1.75634e-23
2.72722e-23
4.56179e-23
8.05741e-23
1.52279e-22
3.23588e-22
7.22398e-22
1.67192e-21
3.95642e-21
9.45888e-21
2.26623e-20
5.38277e-20
1.59813e-19
5.80647e-19
3.0202e-18
2.26449e-17
2.09207e-16
2.08037e-15
2.07333e-14
1.9891e-13
1.78965e-12
1.49061e-11
1.13512e-10
8.05697e-10
6.11754e-09
4.24622e-08
2.49562e-07
1.22316e-06
4.94894e-06
1.65528e-05
4.72532e-05
0.000113582
0.000234164
0.000425737
0.000700774
0.00106527
0.00152039
0.00207189
0.00271854
0.00345702
0.00429241
0.00523033
0.00627754
0.0074405
0.00877024
0.0102576
0.0119
0.0136993
0.0157255
0.0179582
0.0203519
0.0229295
0.0257343
0.0286555
0.0317147
0.0349181
0.0381804
0.0415334
0.0449349
0.0483645
0.051833
0.055308
0.058798
0.06229
0.0657841
0.0692757
0.0727664
0.0762529
0.0797387
0.083221
0.0867037
0.0901872
0.0936732
0.0971634
0.100661
0.104164
0.107684
0.111208
0.114756
0.118313
0.120105
0.121896
0.123695
0.125507
0.127319
0.129138
0.130972
0.132806
0.134656
0.136518
0.138382
0.140276
0.14217
0.14409
0.146016
0.14798
0.149965
0.151989
0.153018
0.154085
0.15517
0.15637
)


113
(
0
9.12878e-23
2.7371e-21
7.23645e-20
7.97189e-19
6.40036e-18
5.03411e-17
3.57333e-16
2.11696e-15
1.12676e-14
5.83921e-14
2.62889e-13
1.05932e-12
3.79593e-12
1.19602e-11
3.6479e-11
1.21357e-10
3.69969e-10
1.04368e-09
2.72942e-09
6.66777e-09
1.53165e-08
3.33596e-08
7.705e-08
1.69067e-07
3.53349e-07
7.05005e-07
1.34885e-06
2.48768e-06
4.44279e-06
7.70154e-06
1.29772e-05
2.13219e-05
3.41961e-05
5.35472e-05
8.20691e-05
0.000122712
0.000179234
0.000256284
0.000358965
0.000492694
0.000665285
0.000882984
0.00115244
0.00148025
0.00187365
0.00233901
0.00288346
0.0035194
0.00425475
0.00509125
0.00603618
0.00709405
0.00826863
0.00956241
0.0110171
0.0126127
0.0143393
0.0161938
0.0182239
0.0204083
0.022713
0.0251547
0.0277715
0.0304832
0.0333099
0.0362772
0.0393078
0.0424439
0.0456531
0.0489047
0.0522407
0.0555957
0.0589971
0.0624189
0.0658609
0.06932
0.0727859
0.0762639
0.0797437
0.0832307
0.0867193
0.090213
0.09371
0.0972125
0.100722
0.104238
0.107767
0.111301
0.114859
0.118427
0.120221
0.122016
0.123818
0.125632
0.127446
0.129267
0.131104
0.13294
0.134791
0.136653
0.138517
0.140409
0.1423
0.144219
0.146142
0.148099
0.150087
0.152118
0.153145
0.154194
0.155249
0.15637
)


113
(
0
9.38214e-10
3.36897e-09
9.12449e-09
2.03604e-08
4.13021e-08
7.87394e-08
1.42712e-07
2.49959e-07
4.22367e-07
6.92145e-07
1.10136e-06
1.70561e-06
2.57821e-06
3.81352e-06
5.59214e-06
8.11435e-06
1.15997e-05
1.63083e-05
2.25597e-05
3.07651e-05
4.14252e-05
5.50788e-05
7.32517e-05
9.61897e-05
0.000125119
0.000161222
0.000205568
0.000259856
0.000326016
0.000405704
0.00050149
0.000615315
0.000750536
0.000909298
0.00109615
0.00131407
0.00156546
0.00185367
0.00218474
0.00256001
0.00298598
0.00346806
0.00400625
0.00460909
0.00527553
0.00601403
0.00682713
0.00772195
0.00870462
0.00977325
0.0109317
0.0121814
0.0135227
0.0149554
0.0165083
0.0181631
0.0199113
0.0217496
0.02371
0.0257775
0.0279288
0.0301759
0.0325486
0.0349923
0.0375232
0.0401687
0.0428693
0.0456657
0.0485388
0.0514563
0.0544807
0.0575341
0.0606618
0.063833
0.0670471
0.0703152
0.0736043
0.0769497
0.0803046
0.0837067
0.0871183
0.0905616
0.0940183
0.0974963
0.100991
0.104498
0.108027
0.111564
0.115123
0.118688
0.120478
0.122268
0.124065
0.125876
0.127688
0.12951
0.131355
0.133199
0.135067
0.136953
0.13884
0.140726
0.142613
0.144523
0.146437
0.148376
0.15032
0.152264
0.153232
0.154201
0.155204
0.15637
)


113
(
0
1.14731e-06
2.70927e-06
4.99466e-06
8.11398e-06
1.22848e-05
1.77729e-05
2.48803e-05
3.39443e-05
4.53353e-05
5.94592e-05
7.67605e-05
9.77618e-05
0.000123096
0.000153404
0.000189403
0.000232588
0.000283085
0.000341672
0.00040944
0.000487509
0.000576759
0.000677928
0.000796683
0.000930642
0.00108155
0.00125115
0.00144135
0.00165378
0.00189039
0.00215375
0.00244516
0.00276617
0.00311934
0.00350854
0.00393284
0.00439887
0.00490524
0.00545565
0.00605138
0.0066936
0.00738956
0.00813729
0.00893993
0.00979726
0.010716
0.0116924
0.012729
0.0138359
0.0150095
0.0162502
0.0175594
0.0189369
0.0203823
0.021895
0.0234947
0.0251676
0.0269076
0.0287125
0.0306053
0.0325756
0.0346068
0.0367081
0.0389027
0.041151
0.0434654
0.04587
0.0483189
0.0508464
0.0534407
0.0560737
0.0588039
0.0615625
0.0643944
0.0672727
0.0701966
0.0731902
0.0762108
0.0792946
0.0823919
0.0855758
0.0887707
0.0920022
0.0952701
0.0985957
0.101978
0.105405
0.1089
0.112418
0.115914
0.119423
0.121194
0.122966
0.124746
0.12654
0.128335
0.130137
0.131953
0.13377
0.135597
0.137434
0.13927
0.14112
0.142969
0.144819
0.146669
0.148509
0.150348
0.1522
0.15314
0.154125
0.155177
0.15637
)


113
(
0
2.4816e-05
5.12117e-05
8.22017e-05
0.000118516
0.000161088
0.000210767
0.000268293
0.000334344
0.000409574
0.000494634
0.000590201
0.000696967
0.00081568
0.000947095
0.00109309
0.00125568
0.00143406
0.00162915
0.00184193
0.00207344
0.00232477
0.00259709
0.00289516
0.003217
0.00357026
0.00395111
0.00435633
0.00478768
0.00524861
0.00573872
0.00625668
0.0068117
0.00740308
0.00802772
0.008686
0.00938641
0.0101249
0.0109011
0.0117215
0.0125832
0.0134877
0.0144361
0.0154321
0.0164743
0.0175617
0.0186969
0.0198803
0.0211163
0.0224048
0.0237441
0.025135
0.026577
0.0280698
0.0296131
0.0312212
0.0328752
0.034582
0.0363431
0.0381715
0.0400444
0.041965
0.0439516
0.0460126
0.048106
0.0502352
0.0524631
0.0547234
0.0570233
0.0594066
0.061838
0.064365
0.0669331
0.0696123
0.0723476
0.075138
0.0779607
0.080796
0.083655
0.0865226
0.0894667
0.0924294
0.0954537
0.0985076
0.101609
0.104751
0.107925
0.111151
0.114395
0.117702
0.121027
0.12271
0.124392
0.126083
0.127789
0.129495
0.131207
0.132929
0.13465
0.136376
0.138104
0.139833
0.141562
0.14329
0.145021
0.146753
0.148507
0.150291
0.152138
0.153095
0.154112
0.155192
0.15637
)


113
(
0
0.000133797
0.000264183
0.000400083
0.000544936
0.00070135
0.000871273
0.00105603
0.00125652
0.00147334
0.00170695
0.00195779
0.00222622
0.00251271
0.00281765
0.00314296
0.00349044
0.00385819
0.00424671
0.00465654
0.00508826
0.00554246
0.00601979
0.00652453
0.00705342
0.00760698
0.00818579
0.00879032
0.0094211
0.0100786
0.0107633
0.0114755
0.0122156
0.0129869
0.0138413
0.0146732
0.0155343
0.0164247
0.0173443
0.0182933
0.0192715
0.0202798
0.0213176
0.0222167
0.0222125
0.0235996
0.024978
0.026479
0.0279476
0.0295214
0.0311547
0.0328577
0.0345882
0.0363517
0.0382123
0.0402584
0.0423524
0.0440327
0.0453089
0.0471155
0.0489665
0.0508527
0.0527795
0.0547614
0.0567756
0.0588298
0.0609636
0.063119
0.0652935
0.0675133
0.0697594
0.0720756
0.0744132
0.0768061
0.0792366
0.0817043
0.0842261
0.086769
0.0893802
0.0920039
0.0946964
0.0974059
0.100171
0.102964
0.1058
0.108673
0.111575
0.114521
0.117483
0.120495
0.12352
0.125046
0.126573
0.128104
0.129646
0.131187
0.132732
0.134285
0.135839
0.137399
0.138965
0.140533
0.142122
0.143712
0.145337
0.146968
0.148666
0.150413
0.152244
0.153197
0.154203
0.155255
0.15637
)


113
(
0
0.000368307
0.000718767
0.0010637
0.00141059
0.00176399
0.00212739
0.00250327
0.0028933
0.00329852
0.00371959
0.00415694
0.00461082
0.00508142
0.00556886
0.00607445
0.00659925
0.00714109
0.00769996
0.00827582
0.00886866
0.00947846
0.0101053
0.0116856
0.0125691
0.013361
0.0141774
0.0150186
0.0158848
0.0167765
0.0176938
0.0186373
0.019607
0.0206035
0.0216268
0.0226781
0.0237568
0.024863
0.0259969
0.0271588
0.0283488
0.0295681
0.0308164
0.0320936
0.0333998
0.0347351
0.0360995
0.0374933
0.0389185
0.040375
0.0418614
0.043378
0.0449243
0.0465
0.0481044
0.049746
0.0514187
0.0531199
0.0548485
0.0566144
0.0584133
0.0602385
0.0620939
0.0639905
0.0659112
0.0678617
0.069854
0.0718674
0.0739185
0.0760027
0.0781061
0.0802608
0.0824311
0.0846419
0.0868801
0.0891453
0.0914497
0.0937693
0.0964062
0.0990527
0.10143
0.103819
0.10625
0.1087
0.111181
0.113687
0.116215
0.118773
0.121342
0.12395
0.12657
0.127894
0.129217
0.130549
0.131895
0.13324
0.134595
0.135969
0.137342
0.138737
0.140148
0.141562
0.143026
0.14449
0.146012
0.147545
0.14916
0.150822
0.152561
0.153461
0.154399
0.155365
0.15637
)


113
(
0
0.000789507
0.00154786
0.00228563
0.00301245
0.00373381
0.00445441
0.00517819
0.00590831
0.00664723
0.00739681
0.00815852
0.00893351
0.00972277
0.0105271
0.0113484
0.0121884
0.0130456
0.0139203
0.0148129
0.0157237
0.0166531
0.0176014
0.0185718
0.0195613
0.0205702
0.0215987
0.0226468
0.0237147
0.0248026
0.0259106
0.0270388
0.0281873
0.0293562
0.0305455
0.0317558
0.0329866
0.0342378
0.0355095
0.0368016
0.0381143
0.0394481
0.0408027
0.042178
0.0435739
0.0449902
0.0464271
0.0478845
0.0493637
0.0508645
0.0523858
0.0539277
0.0554899
0.0570719
0.0586733
0.0602995
0.0619464
0.0636121
0.0652959
0.067004
0.0687336
0.0704799
0.0722457
0.0740376
0.0758446
0.0776702
0.0795217
0.081386
0.0832732
0.0851803
0.0870988
0.0890475
0.0910052
0.0929864
0.0949833
0.0969956
0.0990302
0.101074
0.103145
0.105221
0.107326
0.109437
0.111573
0.113721
0.115889
0.118076
0.120278
0.12251
0.124751
0.127037
0.12934
0.13051
0.131681
0.132864
0.134068
0.135273
0.136491
0.137738
0.138984
0.140258
0.141556
0.142855
0.144212
0.145569
0.146983
0.148407
0.149899
0.151426
0.153007
0.153817
0.15465
0.1555
0.15637
)


113
(
0
0.00133613
0.00263836
0.00391098
0.0051612
0.00639212
0.0076067
0.00880794
0.00999865
0.0111813
0.0123581
0.0135307
0.0147009
0.0158698
0.0170387
0.0182089
0.0193817
0.0205578
0.0217379
0.0229227
0.0241128
0.0253087
0.0265112
0.0277216
0.0289395
0.0301652
0.031399
0.0326412
0.0338922
0.0351522
0.0364214
0.0377001
0.0389884
0.0402865
0.0415946
0.0429129
0.0442414
0.04558
0.0469288
0.0482878
0.0496571
0.051037
0.0524273
0.053828
0.055239
0.0566602
0.0580916
0.0595331
0.0609855
0.0624486
0.0639217
0.0654049
0.066898
0.0684008
0.0699131
0.0714374
0.0729718
0.0745154
0.0760677
0.0776319
0.0792067
0.0807898
0.0823826
0.0839885
0.0856021
0.0872255
0.0888625
0.0905065
0.0921631
0.0938312
0.095506
0.0971993
0.0988986
0.100613
0.102339
0.104077
0.105832
0.107594
0.109381
0.111172
0.112992
0.11482
0.116675
0.118545
0.120439
0.122357
0.124296
0.126273
0.128263
0.130311
0.132379
0.133436
0.134493
0.135564
0.136658
0.137751
0.138858
0.139993
0.141127
0.142284
0.143461
0.144639
0.14586
0.147081
0.148339
0.149603
0.150907
0.152229
0.153579
0.154263
0.154958
0.15566
0.15637
)


113
(
0
0.0016571
0.00330569
0.00494563
0.00657798
0.00820275
0.00981999
0.0114299
0.0130327
0.0146286
0.0162181
0.0178014
0.0193786
0.0209502
0.0225162
0.0240765
0.0256311
0.0271808
0.0287258
0.0302664
0.0318026
0.0333347
0.0348627
0.0363864
0.0379065
0.0394233
0.0409368
0.0424473
0.043955
0.0454599
0.0469623
0.0484623
0.0499601
0.0514559
0.0529499
0.0544422
0.0559329
0.0574224
0.0589108
0.0603982
0.0618848
0.0633708
0.0648564
0.0663416
0.0678268
0.069312
0.0707974
0.0722833
0.0737697
0.0752569
0.076745
0.0782342
0.0797246
0.0812164
0.0827096
0.0842049
0.0857022
0.0872014
0.0887026
0.0902067
0.0917136
0.0932228
0.0947348
0.0962509
0.0977697
0.0992916
0.100819
0.102348
0.103882
0.105421
0.106963
0.108512
0.110063
0.111621
0.113184
0.114751
0.116326
0.117904
0.119491
0.121081
0.122682
0.124285
0.125899
0.127517
0.129144
0.130778
0.132419
0.134071
0.135726
0.137396
0.13907
0.139913
0.140755
0.1416
0.14245
0.1433
0.144152
0.145009
0.145866
0.146727
0.147591
0.148455
0.149325
0.150195
0.151069
0.151945
0.152825
0.153707
0.154591
0.155035
0.155479
0.155924
0.15637
)

)


10
(

113
(
0
9.61054e-22
1.89846e-21
2.82053e-21
3.74776e-21
4.70172e-21
5.6904e-21
6.78057e-21
8.07378e-21
9.75826e-21
1.21965e-20
1.61e-20
2.275e-20
3.44615e-20
5.70769e-20
1.132e-19
2.555e-19
6.20615e-19
1.44917e-18
4.14083e-18
1.46492e-17
5.755e-17
2.416e-16
9.46385e-16
3.01331e-15
1.6405e-14
9.03333e-14
4.825e-13
2.3915e-12
9.95667e-12
4.27233e-11
2.60364e-10
1.416e-09
6.885e-09
3.11455e-08
1.35364e-07
5.22455e-07
1.78545e-06
5.44e-06
1.68582e-05
4.5e-05
0.0001102
0.000229
0.0004395
0.000765
0.00123136
0.00187273
0.00268667
0.00365167
0.00481
0.00611
0.00767833
0.00943538
0.0113
0.0133
0.0155286
0.0179286
0.0205
0.0232333
0.0259438
0.0286312
0.0316
0.0346188
0.0376812
0.0407824
0.0439
0.0469
0.0499222
0.0530333
0.0561889
0.0594111
0.0625632
0.0656684
0.0688105
0.0719684
0.07504
0.07809
0.08114
0.08419
0.08728
0.09038
0.09348
0.09658
0.0996421
0.102695
0.1057
0.1087
0.112
0.115333
0.118667
0.122059
0.123824
0.125588
0.127312
0.128875
0.130438
0.132
0.133667
0.135333
0.137
0.138667
0.140333
0.142091
0.143909
0.145667
0.147333
0.148857
0.150333
0.152
0.15325
0.1545
0.155
0.156
)


113
(
0
1.65262e-21
2.3576e-20
3.31121e-19
3.1739e-18
2.38141e-17
1.83757e-16
1.23174e-15
7.31781e-15
4.00194e-14
1.95893e-13
8.35372e-13
2.97174e-12
9.364e-12
3.14071e-11
1.05015e-10
3.30708e-10
9.55808e-10
2.27046e-09
5.65179e-09
1.51094e-08
3.55654e-08
7.94576e-08
1.67831e-07
3.34807e-07
6.99663e-07
1.38544e-06
2.61792e-06
4.73596e-06
8.21829e-06
1.41728e-05
2.40968e-05
4.01226e-05
6.42968e-05
9.93998e-05
0.000150594
0.000222743
0.000322583
0.000457402
0.000641676
0.000881666
0.00118572
0.00157121
0.00204199
0.00261889
0.00330485
0.00411135
0.00504978
0.00611564
0.00731801
0.00870425
0.0102201
0.0118836
0.0136782
0.0156276
0.0177288
0.019938
0.0222523
0.0247303
0.0272841
0.0299136
0.0326608
0.0354527
0.0383182
0.0412426
0.0441922
0.0472066
0.0502297
0.0532876
0.0563563
0.0594411
0.0625336
0.0656312
0.0687303
0.0718301
0.0749273
0.0780238
0.081116
0.0842071
0.0872975
0.0903878
0.0934849
0.0965838
0.0997026
0.102826
0.105989
0.109157
0.112374
0.115601
0.118872
0.122152
0.123804
0.125456
0.12711
0.128772
0.130435
0.132097
0.133768
0.135439
0.13711
0.138788
0.140466
0.142146
0.143828
0.145515
0.147211
0.148925
0.150664
0.152457
0.153361
0.154261
0.155137
0.156
)


113
(
0
1.74718e-09
6.28394e-09
1.64492e-08
3.61579e-08
7.29842e-08
1.39917e-07
2.54783e-07
4.47042e-07
7.55326e-07
1.23289e-06
1.95912e-06
3.01716e-06
4.53377e-06
6.76918e-06
9.98633e-06
1.44203e-05
2.0457e-05
2.82656e-05
3.91236e-05
5.39099e-05
7.259e-05
9.67049e-05
0.000127305
0.000165068
0.000214976
0.000276456
0.000351219
0.000441733
0.000550769
0.000682656
0.00084188
0.0010316
0.0012531
0.00150938
0.00180789
0.00215155
0.00254252
0.00299083
0.00350311
0.00407712
0.004719
0.00543687
0.00622776
0.00710401
0.0080628
0.00910851
0.010246
0.01147
0.0127845
0.01422
0.0157393
0.0173555
0.0190585
0.0208653
0.0227771
0.024766
0.026831
0.0290219
0.031276
0.0335934
0.036019
0.0384898
0.0410379
0.0436571
0.0463067
0.0490481
0.0518061
0.0546306
0.0574825
0.0603755
0.0633033
0.0662541
0.0692386
0.0722376
0.0752688
0.0783082
0.0813732
0.0844446
0.0875406
0.0906427
0.0937655
0.0968935
0.100041
0.103194
0.106372
0.109552
0.112753
0.115959
0.119191
0.122427
0.124049
0.125671
0.127296
0.128933
0.130571
0.132208
0.133881
0.135553
0.137226
0.138917
0.140607
0.142298
0.143989
0.145687
0.147393
0.149105
0.150815
0.152514
0.153346
0.154179
0.15503
0.156
)


113
(
0
1.89345e-06
4.46427e-06
8.1366e-06
1.31232e-05
1.98009e-05
2.85898e-05
3.99568e-05
5.44081e-05
7.2479e-05
9.46637e-05
0.000121759
0.000154401
0.000193694
0.000241213
0.000297286
0.000362258
0.000437743
0.000524037
0.00062653
0.000744308
0.000877203
0.00102848
0.00119922
0.00139118
0.00160947
0.00185447
0.00212642
0.00242515
0.00275184
0.0031201
0.00352443
0.00397035
0.00445355
0.00497692
0.00554772
0.00616431
0.00682923
0.00754609
0.00831946
0.00915271
0.0100378
0.0109828
0.0119853
0.0130539
0.0141846
0.0153781
0.0166366
0.017957
0.0193419
0.0208107
0.0223373
0.0239312
0.0255859
0.0273138
0.0291154
0.0309727
0.0328858
0.0348919
0.0369464
0.0390495
0.0412391
0.0434663
0.0457593
0.0481151
0.050498
0.052972
0.0554635
0.0580253
0.0606189
0.0632599
0.0659496
0.0686716
0.0714386
0.0742248
0.0770645
0.0799175
0.0828228
0.0857411
0.0886952
0.0916582
0.0946725
0.0976996
0.100767
0.103845
0.106958
0.110074
0.113305
0.116543
0.119734
0.122935
0.124547
0.126159
0.127774
0.129401
0.131028
0.132656
0.134298
0.13594
0.137582
0.139235
0.140888
0.142542
0.144197
0.145848
0.147492
0.149124
0.150749
0.152371
0.153205
0.154057
0.154973
0.156
)


113
(
0
3.53946e-05
7.28863e-05
0.000116257
0.000166771
0.000225876
0.000294681
0.000374078
0.000464828
0.000567617
0.00068291
0.000811943
0.000954845
0.00111276
0.00128942
0.00148405
0.00169709
0.00192974
0.00218068
0.00245649
0.00275881
0.00308283
0.00343206
0.00380761
0.00421222
0.00466183
0.0051379
0.0056395
0.00617059
0.00673614
0.00733583
0.00797477
0.00864948
0.00935816
0.0101062
0.010897
0.0117211
0.012592
0.0135022
0.0144584
0.0154626
0.0165069
0.0175961
0.0187326
0.0199143
0.0211432
0.0224217
0.023749
0.0251212
0.0265394
0.0280168
0.0295361
0.0311058
0.0327215
0.0343906
0.0361074
0.0378682
0.0396771
0.0415542
0.0434607
0.0453964
0.0474165
0.0494697
0.0515785
0.0537252
0.0558882
0.0581501
0.0604308
0.0627865
0.065176
0.0676162
0.0701055
0.0726275
0.0752328
0.0778738
0.0806117
0.0833739
0.0861038
0.0888258
0.0916013
0.0943902
0.0972298
0.100082
0.102981
0.105892
0.108852
0.111819
0.114831
0.117852
0.120914
0.123988
0.125539
0.127089
0.128643
0.130208
0.131773
0.133338
0.134909
0.136481
0.138052
0.139621
0.141189
0.142753
0.144314
0.145875
0.147434
0.149006
0.150598
0.152237
0.153109
0.154003
0.154962
0.156
)


113
(
0
0.000169066
0.000333275
0.000503055
0.000683074
0.000876891
0.0010869
0.00131456
0.00156073
0.00182586
0.00210994
0.00241404
0.00273758
0.00308143
0.00344956
0.00383992
0.0042523
0.00468739
0.00514312
0.00562598
0.00613669
0.00666951
0.00722744
0.00781064
0.00842031
0.00906031
0.00972673
0.0104197
0.0111396
0.0118866
0.0126644
0.013472
0.0143095
0.0152112
0.0161426
0.017071
0.0180286
0.0190156
0.0200317
0.0210802
0.0221575
0.0232622
0.024397
0.0255584
0.0260412
0.027005
0.0284954
0.0300396
0.0316538
0.033282
0.0350227
0.0367906
0.0385824
0.0404257
0.0424265
0.0444942
0.0463121
0.0477302
0.0495506
0.0514001
0.0532787
0.0552108
0.0571667
0.059164
0.0612036
0.0632613
0.0654142
0.0675706
0.0697412