/*--------------------------------*- C++ -*----------------------------------*\
| =========                 |                                                 |
| \\      /  F ield         | OpenFOAM: The Open Source CFD Toolbox           |
|  \\    /   O peration     | Version:  2.3.0                                 |
|   \\  /    A nd           | Web:      www.OpenFOAM.org                      |
|    \\/     M anipulation  |                                                 |
\*---------------------------------------------------------------------------*/
FoamFile
{
    version     2.0;
    format      ascii;
    class       dictionary;
    location    "constant";
    object      CN;
}
// * * * * * * * * * * * * * * * * * * * * * * * * * * * * * * * * * * * * * //

CN_table
13
(

10
(

113
(
0
5.79329e-31
1.31857e-28
3.93888e-27
4.26316e-26
2.5169e-25
1.04296e-24
5.58e-24
2.26548e-23
5.89179e-23
2.0203e-22
6.36538e-22
1.3e-21
4.3e-21
1.19348e-20
2.62391e-20
8.89282e-20
2.22524e-19
6.43256e-19
2.09577e-18
4.46325e-18
1.57305e-17
4.02395e-17
9.96222e-17
2.98778e-16
6.03658e-16
2.23658e-15
9.4646e-15
2.47441e-14
1.80857e-13
8.13425e-13
3.10592e-12
1.79264e-11
4.35792e-11
2.07542e-10
6.32753e-10
1.40427e-09
3.39215e-09
5.93987e-09
9.42089e-09
1.23459e-08
1.46925e-08
1.46304e-08
1.37144e-08
1.19778e-08
1.02434e-08
8.55436e-09
7.23034e-09
6.02557e-09
5.07422e-09
4.24829e-09
3.5638e-09
2.99e-09
2.49e-09
2.09183e-09
1.74157e-09
1.47129e-09
1.23366e-09
1.047e-09
8.83232e-10
7.51914e-10
6.40486e-10
5.46907e-10
4.69804e-10
4.00713e-10
3.44694e-10
2.91615e-10
2.48954e-10
2.06655e-10
1.73018e-10
1.39382e-10
1.11651e-10
8.50443e-11
6.34514e-11
4.48027e-11
2.97e-11
1.97e-11
1.07584e-11
6.98403e-12
3.20969e-12
1.95078e-12
9.40648e-13
4.40618e-13
2.2752e-13
8.12906e-14
4.41605e-14
1.1828e-14
6.68119e-15
1.5344e-15
7.88718e-16
1.79148e-16
8.65715e-17
6.10078e-17
3.5444e-17
9.8802e-18
4.48942e-18
2.9411e-18
1.39279e-18
2.5443e-19
1.70253e-19
8.60759e-20
1.14823e-20
7.16812e-21
2.85394e-21
3.51569e-22
1.55133e-22
1.14021e-23
3.19531e-24
1.74118e-25
1.24751e-26
3.41443e-27
1.17281e-28
0
)


113
(
0
3.28883e-24
8.90888e-23
1.49139e-21
1.44416e-20
9.63527e-20
4.43476e-19
3.38264e-18
1.91242e-17
5.87301e-17
2.62316e-16
1.09936e-15
2.43412e-15
1.04297e-14
3.20312e-14
7.32122e-14
2.09345e-13
4.51765e-13
1.09722e-12
2.54712e-12
4.7104e-12
1.06303e-11
1.95843e-11
3.59854e-11
6.6309e-11
1.05287e-10
1.84607e-10
2.91776e-10
4.39023e-10
6.6809e-10
9.45638e-10
1.32862e-09
1.80112e-09
2.33366e-09
3.00349e-09
3.71271e-09
4.47415e-09
5.24862e-09
6.00274e-09
6.69558e-09
7.26596e-09
7.75181e-09
8.02114e-09
8.14509e-09
8.12935e-09
7.8912e-09
7.58854e-09
7.10677e-09
6.5883e-09
5.99183e-09
5.38906e-09
4.77918e-09
4.2022e-09
3.64715e-09
3.15645e-09
2.69602e-09
2.30898e-09
1.95191e-09
1.6594e-09
1.39589e-09
1.18026e-09
9.93971e-10
8.36898e-10
7.06793e-10
5.91687e-10
5.01054e-10
4.16394e-10
3.52913e-10
2.90176e-10
2.45324e-10
2.00473e-10
1.66601e-10
1.34821e-10
1.09067e-10
8.68529e-11
6.76895e-11
5.2917e-11
3.91081e-11
3.00042e-11
2.09004e-11
1.55006e-11
1.04672e-11
7.1155e-12
4.70976e-12
2.84242e-12
1.8535e-12
9.6137e-13
6.17682e-13
2.73994e-13
1.68457e-13
7.02866e-14
4.92507e-14
3.70725e-14
2.48944e-14
1.27162e-14
8.64997e-15
6.12888e-15
3.60779e-15
1.65713e-15
1.17328e-15
6.89436e-16
2.53544e-16
1.69325e-16
8.51057e-17
3.1361e-17
1.64018e-17
4.81935e-18
1.91976e-18
4.9785e-19
1.85784e-19
8.38743e-20
2.29832e-20
0
)


113
(
0
5.71994e-14
1.91043e-13
4.76181e-13
9.95032e-13
1.86339e-12
3.30361e-12
5.83471e-12
9.47017e-12
1.42325e-11
2.20756e-11
3.25914e-11
4.52073e-11
6.54226e-11
9.00905e-11
1.21166e-10
1.63586e-10
2.11785e-10
2.74351e-10
3.46435e-10
4.2696e-10
5.39764e-10
6.61821e-10
8.00003e-10
9.54115e-10
1.11786e-09
1.31458e-09
1.52206e-09
1.74502e-09
1.98494e-09
2.2317e-09
2.48832e-09
2.74985e-09
3.01433e-09
3.26873e-09
3.51782e-09
3.75987e-09
3.97933e-09
4.1857e-09
4.3675e-09
4.51888e-09
4.65068e-09
4.73912e-09
4.79969e-09
4.83347e-09
4.81818e-09
4.78757e-09
4.70865e-09
4.61242e-09
4.47943e-09
4.326e-09
4.14954e-09
3.95157e-09
3.73925e-09
3.52016e-09
3.29787e-09
3.07331e-09
2.84782e-09
2.61579e-09
2.38083e-09
2.16307e-09
1.95585e-09
1.75868e-09
1.57078e-09
1.39337e-09
1.23306e-09
1.07905e-09
9.47348e-10
8.16734e-10
7.12114e-10
6.07495e-10
5.23405e-10
4.43225e-10
3.76239e-10
3.17003e-10
2.64187e-10
2.20608e-10
1.79347e-10
1.49404e-10
1.1946e-10
9.84359e-11
7.82943e-11
6.26213e-11
4.94619e-11
3.81579e-11
2.98811e-11
2.2103e-11
1.71517e-11
1.22004e-11
9.22797e-12
6.31677e-12
5.35718e-12
4.55422e-12
3.75126e-12
2.94829e-12
2.464e-12
2.0404e-12
1.6168e-12
1.24627e-12
1.01218e-12
7.78099e-13
5.57556e-13
4.36326e-13
3.15095e-13
2.18509e-13
1.53289e-13
9.59971e-14
5.90926e-14
3.16079e-14
2.05714e-14
1.27506e-14
5.95498e-15
0
)


113
(
0
6.50928e-12
1.46058e-11
2.54573e-11
3.92817e-11
5.63298e-11
7.72275e-11
1.03109e-10
1.33106e-10
1.66881e-10
2.07921e-10
2.53888e-10
3.03725e-10
3.64509e-10
4.30009e-10
5.02293e-10
5.83134e-10
6.66989e-10
7.55113e-10
8.51449e-10
9.55066e-10
1.06251e-09
1.17226e-09
1.2874e-09
1.39928e-09
1.50989e-09
1.64818e-09
1.77746e-09
1.89375e-09
2.0189e-09
2.14528e-09
2.26799e-09
2.3875e-09
2.50474e-09
2.61102e-09
2.71425e-09
2.81342e-09
2.89801e-09
2.9766e-09
3.04592e-09
3.10522e-09
3.15793e-09
3.19543e-09
3.22426e-09
3.24477e-09
3.24784e-09
3.24558e-09
3.22703e-09
3.20219e-09
3.16399e-09
3.11679e-09
3.05944e-09
2.99158e-09
2.9167e-09
2.83975e-09
2.76184e-09
2.66055e-09
2.54971e-09
2.44093e-09
2.33307e-09
2.22419e-09
2.11468e-09
2.00199e-09
1.88636e-09
1.77217e-09
1.66031e-09
1.54869e-09
1.43785e-09
1.32761e-09
1.23171e-09
1.13581e-09
1.03657e-09
9.36695e-10
8.49226e-10
7.69044e-10
6.9339e-10
6.24252e-10
5.56301e-10
4.94146e-10
4.31991e-10
3.7944e-10
3.27838e-10
2.83996e-10
2.44518e-10
2.08653e-10
1.78683e-10
1.4963e-10
1.2578e-10
1.01929e-10
8.43902e-11
6.70468e-11
6.01931e-11
5.39137e-11
4.76342e-11
4.13548e-11
3.65791e-11
3.20898e-11
2.76006e-11
2.34737e-11
2.02788e-11
1.70838e-11
1.39981e-11
1.1714e-11
9.42992e-12
7.42011e-12
5.75938e-12
4.21266e-12
2.95914e-12
1.86179e-12
1.35759e-12
9.02154e-13
4.54648e-13
0
)


113
(
0
2.83826e-11
5.63729e-11
8.67437e-11
1.20118e-10
1.56654e-10
1.96672e-10
2.40584e-10
2.87307e-10
3.36488e-10
3.89783e-10
4.45458e-10
5.03002e-10
5.64498e-10
6.27439e-10
6.92461e-10
7.59885e-10
8.28314e-10
8.98722e-10
9.70016e-10
1.0421e-09
1.115e-09
1.18802e-09
1.26113e-09
1.33529e-09
1.41009e-09
1.48795e-09
1.5624e-09
1.63196e-09
1.70547e-09
1.77643e-09
1.83411e-09
1.88566e-09
1.93364e-09
1.99848e-09
2.05311e-09
2.0942e-09
2.13627e-09
2.17603e-09
2.20908e-09
2.2378e-09
2.26357e-09
2.282e-09
2.29691e-09
2.30845e-09
2.31358e-09
2.3164e-09
2.31035e-09
2.30227e-09
2.28987e-09
2.27029e-09
2.2426e-09
2.22097e-09
2.20338e-09
2.16524e-09
2.11743e-09
2.0742e-09
2.03286e-09
1.98464e-09
1.93335e-09
1.88079e-09
1.82747e-09
1.77444e-09
1.72169e-09
1.66144e-09
1.58894e-09
1.51819e-09
1.45368e-09
1.38904e-09
1.32155e-09
1.25406e-09
1.1831e-09
1.11147e-09
1.05031e-09
9.95297e-10
9.35526e-10
8.68912e-10
8.03771e-10
7.45829e-10
6.87886e-10
6.33795e-10
5.80086e-10
5.29441e-10
4.80519e-10
4.33544e-10
3.89744e-10
3.4673e-10
3.08167e-10
2.69605e-10
2.36019e-10
2.02588e-10
1.87706e-10
1.73402e-10
1.59098e-10
1.44795e-10
1.32323e-10
1.202e-10
1.08077e-10
9.64881e-11
8.62707e-11
7.60533e-11
6.60264e-11
5.73977e-11
4.87689e-11
4.06709e-11
3.32486e-11
2.60404e-11
1.93828e-11
1.29386e-11
9.77099e-12
6.59858e-12
3.36835e-12
0
)


113
(
0
4.52859e-11
8.68308e-11
1.27335e-10
1.68104e-10
2.09627e-10
2.52238e-10
2.96183e-10
3.41069e-10
3.86762e-10
4.33675e-10
4.81168e-10
5.29116e-10
5.77768e-10
6.26563e-10
6.75563e-10
7.24558e-10
7.73489e-10
8.22119e-10
8.70377e-10
9.18304e-10
9.65303e-10
1.01185e-09
1.0574e-09
1.10191e-09
1.1458e-09
1.18782e-09
1.22896e-09
1.26882e-09
1.30677e-09
1.34371e-09
1.37859e-09
1.41176e-09
1.44374e-09
1.47048e-09
1.49682e-09
1.52264e-09
1.54573e-09
1.56743e-09
1.58671e-09
1.60365e-09
1.61913e-09
1.63156e-09
1.6564e-09
1.69314e-09
1.70611e-09
1.71365e-09
1.71395e-09
1.71293e-09
1.70913e-09
1.70099e-09
1.68793e-09
1.67353e-09
1.65822e-09
1.63694e-09
1.61285e-09
1.57895e-09
1.54106e-09
1.512e-09
1.48692e-09
1.45961e-09
1.43095e-09
1.40059e-09
1.36866e-09
1.33563e-09
1.3008e-09
1.26595e-09
1.23104e-09
1.19593e-09
1.15622e-09
1.11651e-09
1.07556e-09
1.03437e-09
9.92544e-10
9.50342e-10
9.07922e-10
8.65187e-10
8.22443e-10
7.79656e-10
7.36869e-10
6.94476e-10
6.52122e-10
6.10347e-10
5.68896e-10
5.27957e-10
4.87851e-10
4.48008e-10
4.09647e-10
3.71286e-10
3.3494e-10
2.98657e-10
2.81392e-10
2.64403e-10
2.47415e-10
2.30427e-10
2.14434e-10
1.9863e-10
1.82826e-10
1.67331e-10
1.5263e-10
1.37928e-10
1.23332e-10
1.09506e-10
9.56804e-11
8.20758e-11
6.87527e-11
5.5444e-11
4.21726e-11
2.86782e-11
2.18523e-11
1.47832e-11
7.5404e-12
0
)


113
(
0
4.64879e-11
8.87955e-11
1.28387e-10
1.66428e-10
2.03455e-10
2.39759e-10
2.75565e-10
3.11107e-10
3.46438e-10
3.81466e-10
4.16297e-10
4.50974e-10
4.85218e-10
5.19237e-10
5.52933e-10
5.86085e-10
6.18962e-10
6.51162e-10
6.82862e-10
7.14119e-10
7.44421e-10
7.7374e-10
8.0056e-10
8.27465e-10
8.54388e-10
8.7985e-10
9.04666e-10
9.28552e-10
9.5112e-10
9.72997e-10
9.9352e-10
1.01296e-09
1.03167e-09
1.04858e-09
1.06469e-09
1.07974e-09
1.09317e-09
1.10579e-09
1.117e-09
1.12686e-09
1.13588e-09
1.14315e-09
1.14936e-09
1.15457e-09
1.15797e-09
1.16079e-09
1.16165e-09
1.16177e-09
1.16035e-09
1.15785e-09
1.15414e-09
1.14905e-09
1.14303e-09
1.13545e-09
1.12713e-09
1.11718e-09
1.10656e-09
1.09436e-09
1.08147e-09
1.06719e-09
1.05207e-09
1.03584e-09
1.01857e-09
1.00053e-09
9.8122e-10
9.61486e-10
9.40255e-10
9.18952e-10
8.95943e-10
8.72933e-10
8.48565e-10
8.23939e-10
7.98407e-10
7.72345e-10
7.45772e-10
7.18465e-10
6.91459e-10
6.65915e-10
6.40371e-10
6.11004e-10
5.81259e-10
5.51236e-10
5.21057e-10
4.908e-10
4.60417e-10
4.30037e-10
3.99671e-10
3.69306e-10
3.39132e-10
3.08965e-10
2.9399e-10
2.7905e-10
2.6411e-10
2.4917e-10
2.34329e-10
2.19506e-10
2.04683e-10
1.8986e-10
1.75036e-10
1.60212e-10
1.45363e-10
1.30328e-10
1.15294e-10
1.00051e-10
8.45428e-11
6.88367e-11
5.26217e-11
3.58714e-11
2.73288e-11
1.84452e-11
9.3704e-12
0
)


113
(
0
3.6046e-11
6.93864e-11
1.0047e-10
1.29897e-10
1.57967e-10
1.84798e-10
2.1047e-10
2.35397e-10
2.59696e-10
2.83032e-10
3.05837e-10
3.28226e-10
3.49727e-10
3.70879e-10
3.91528e-10
4.11505e-10
4.31172e-10
4.50141e-10
4.6866e-10
4.8678e-10
5.04123e-10
5.21151e-10
5.37526e-10
5.53326e-10
5.68783e-10
5.83339e-10
5.97509e-10
6.11124e-10
6.23973e-10
6.36425e-10
6.48107e-10
6.59181e-10
6.69848e-10
6.79525e-10
6.88764e-10
6.9742e-10
7.05202e-10
7.12547e-10
7.19133e-10
7.24998e-10
7.30411e-10
7.3489e-10
7.38809e-10
7.42189e-10
7.44611e-10
7.46721e-10
7.47779e-10
7.48449e-10
7.4829e-10
7.47551e-10
7.46156e-10
7.44012e-10
7.41368e-10
7.37862e-10
7.33951e-10
7.2913e-10
7.23937e-10
7.17856e-10
7.11375e-10
7.04097e-10
6.96332e-10
6.87905e-10
6.78868e-10
6.69357e-10
6.59073e-10
6.48521e-10
6.37023e-10
6.25477e-10
6.12807e-10
6.00136e-10
5.86522e-10
5.72728e-10
5.58263e-10
5.43403e-10
5.2813e-10
5.12262e-10
4.96233e-10
4.79415e-10
4.62597e-10
4.44968e-10
4.27259e-10
4.09015e-10
3.90471e-10
3.71627e-10
3.52292e-10
3.32841e-10
3.12735e-10
2.92628e-10
2.71752e-10
2.50852e-10
2.40072e-10
2.29187e-10
2.18303e-10
2.07418e-10
1.96112e-10
1.84725e-10
1.73339e-10
1.61785e-10
1.49802e-10
1.37819e-10
1.25751e-10
1.13066e-10
1.00382e-10
8.73534e-11
7.38885e-11
6.02021e-11
4.59462e-11
3.12225e-11
2.37181e-11
1.59603e-11
8.07434e-12
0
)


113
(
0
1.96658e-11
3.8291e-11
5.59222e-11
7.27283e-11
8.87904e-11
1.04108e-10
1.18655e-10
1.32671e-10
1.46229e-10
1.59043e-10
1.71435e-10
1.83494e-10
1.9484e-10
2.05911e-10
2.16584e-10
2.26748e-10
2.36682e-10
2.46111e-10
2.55233e-10
2.64084e-10
2.72435e-10
2.80592e-10
2.88353e-10
2.95783e-10
3.03018e-10
3.09759e-10
3.16299e-10
3.22548e-10
3.28412e-10
3.3408e-10
3.39374e-10
3.44381e-10
3.49195e-10
3.53555e-10
3.57716e-10
3.61616e-10
3.65127e-10
3.68448e-10
3.71437e-10
3.74115e-10
3.76598e-10
3.78682e-10
3.80527e-10
3.82144e-10
3.83356e-10
3.84435e-10
3.85071e-10
3.85543e-10
3.85666e-10
3.85544e-10
3.85144e-10
3.84426e-10
3.83495e-10
3.82196e-10
3.80724e-10
3.78858e-10
3.76832e-10
3.74416e-10
3.71825e-10
3.68879e-10
3.65715e-10
3.62249e-10
3.58505e-10
3.54538e-10
3.50208e-10
3.45748e-10
3.40828e-10
3.35884e-10
3.30369e-10
3.24853e-10
3.18832e-10
3.12715e-10
3.06214e-10
2.99487e-10
2.92506e-10
2.85157e-10
2.77699e-10
2.69707e-10
2.61715e-10
2.53114e-10
2.44453e-10
2.35342e-10
2.25978e-10
2.16331e-10
2.06223e-10
1.95997e-10
1.85096e-10
1.74195e-10
1.6247e-10
1.50719e-10
1.44498e-10
1.38169e-10
1.31839e-10
1.25509e-10
1.18778e-10
1.1197e-10
1.05162e-10
9.8216e-11
9.09143e-11
8.36127e-11
7.6252e-11
6.84579e-11
6.06639e-11
5.26656e-11
4.44073e-11
3.60354e-11
2.73713e-11
1.84948e-11
1.39927e-11
9.38555e-12
4.72841e-12
0
)


113
(
0
1.64001e-12
3.24042e-12
4.79927e-12
6.32043e-12
7.80508e-12
9.2505e-12
1.06515e-11
1.20196e-11
1.33586e-11
1.46469e-11
1.59039e-11
1.71365e-11
1.83127e-11
1.94658e-11
2.05856e-11
2.16604e-11
2.27144e-11
2.37219e-11
2.47e-11
2.56522e-11
2.65552e-11
2.74387e-11
2.82825e-11
2.90923e-11
2.98821e-11
3.06208e-11
3.13383e-11
3.20255e-11
3.26721e-11
3.3298e-11
3.38843e-11
3.44402e-11
3.49758e-11
3.54632e-11
3.59295e-11
3.63681e-11
3.67657e-11
3.7143e-11
3.74852e-11
3.77946e-11
3.80834e-11
3.83301e-11
3.85516e-11
3.8749e-11
3.89037e-11
3.90444e-11
3.91383e-11
3.92149e-11
3.92546e-11
3.92682e-11
3.92524e-11
3.92028e-11
3.91306e-11
3.9019e-11
3.88888e-11
3.87163e-11
3.85266e-11
3.82945e-11
3.80435e-11
3.77536e-11
3.74399e-11
3.70929e-11
3.67151e-11
3.63124e-11
3.58692e-11
3.54114e-11
3.49017e-11
3.43892e-11
3.38118e-11
3.32344e-11
3.25991e-11
3.19528e-11
3.12624e-11
3.05461e-11
2.98006e-11
2.90129e-11
2.82129e-11
2.73522e-11
2.64916e-11
2.5563e-11
2.46277e-11
2.36439e-11
2.26327e-11
2.15925e-11
2.05047e-11
1.94055e-11
1.82411e-11
1.70767e-11
1.58389e-11
1.45989e-11
1.3951e-11
1.32944e-11
1.26378e-11
1.19811e-11
1.12955e-11
1.06044e-11
9.91333e-12
9.21339e-12
8.49073e-12
7.76807e-12
7.04207e-12
6.29152e-12
5.54097e-12
4.7801e-12
4.00609e-12
3.22688e-12
2.43431e-12
1.63278e-12
1.22934e-12
8.21723e-13
4.12197e-13
0
)

)


10
(

113
(
0
1.18134e-28
2.24404e-26
1.07224e-24
1.12364e-23
7.5231e-23
3.88183e-22
1.67503e-21
6.31754e-21
2.12718e-20
6.44931e-20
1.77315e-19
4.47794e-19
1.05566e-18
2.35016e-18
5.23358e-18
1.26824e-17
3.12266e-17
7.85361e-17
2.01386e-16
5.22796e-16
1.35605e-15
3.44792e-15
1.06568e-14
3.37158e-14
1.08275e-13
3.49026e-13
1.11739e-12
3.51864e-12
1.07932e-11
3.19657e-11
9.0817e-11
2.46458e-10
6.33123e-10
1.52876e-09
3.45717e-09
7.07635e-09
1.29011e-08
2.08399e-08
2.96694e-08
3.70381e-08
4.02657e-08
3.86029e-08
3.35567e-08
2.73131e-08
2.14311e-08
1.65939e-08
1.28803e-08
1.01682e-08
8.17231e-09
6.65716e-09
5.48378e-09
4.54751e-09
3.77893e-09
3.13168e-09
2.59501e-09
2.12815e-09
1.71741e-09
1.35615e-09
1.05577e-09
8.05256e-10
5.92255e-10
4.20923e-10
2.98326e-10
1.99559e-10
1.28506e-10
8.43441e-11
5.03539e-11
3.10292e-11
1.84849e-11
9.87167e-12
6.1818e-12
3.22806e-12
1.90496e-12
1.01264e-12
5.44266e-13
3.00697e-13
1.44119e-13
8.48242e-14
3.78985e-14
2.29452e-14
1.04294e-14
6.0288e-15
2.826e-15
1.52858e-15
7.37319e-16
3.53544e-16
1.75316e-16
6.56044e-17
3.55492e-17
1.27017e-17
9.06342e-18
5.42515e-18
2.78644e-18
1.95593e-18
1.12541e-18
5.09931e-19
3.39015e-19
1.68099e-19
7.27582e-20
4.17973e-20
1.18281e-20
6.96104e-21
2.09402e-21
8.02615e-22
1.3702e-22
5.32855e-23
7.56575e-24
7.12007e-25
1.07779e-25
2.27552e-26
9.88442e-28
0
)


113
(
0
1.46297e-22
2.2649e-21
2.77528e-20
1.99334e-19
1.12551e-18
6.12781e-18
3.10026e-17
1.3778e-16
5.42945e-16
2.04872e-15
7.0772e-15
2.20784e-14
6.22037e-14
1.58767e-13
3.93229e-13
1.00915e-12
2.41326e-12
5.39903e-12
1.13547e-11
2.25757e-11
4.26893e-11
7.73319e-11
1.41268e-10
2.46794e-10
4.13585e-10
6.66649e-10
1.03517e-09
1.55102e-09
2.24622e-09
3.15077e-09
4.28921e-09
5.67128e-09
7.28605e-09
9.09865e-09
1.10528e-08
1.30569e-08
1.50096e-08
1.68095e-08
1.83466e-08
1.95275e-08
2.02717e-08
2.05412e-08
2.03591e-08
1.97497e-08
1.87473e-08
1.74469e-08
1.59427e-08
1.43057e-08
1.26222e-08
1.09708e-08
9.41149e-09
7.97869e-09
6.6886e-09
5.54637e-09
4.58957e-09
3.77433e-09
3.07608e-09
2.48122e-09
2.00606e-09
1.61509e-09
1.28225e-09
1.00935e-09
7.99062e-10
6.18736e-10
4.7296e-10
3.63806e-10
2.70113e-10
2.00996e-10
1.47409e-10
1.02827e-10
7.5e-11
5.075e-11
3.52132e-11
2.33547e-11
1.51162e-11
9.89863e-12
5.85003e-12
3.82743e-12
2.08935e-12
1.34453e-12
7.06975e-13
4.26522e-13
2.17325e-13
1.21474e-13
6.13786e-14
3.0069e-14
1.52081e-14
5.83001e-15
3.266e-15
1.29256e-15
9.40623e-16
5.88684e-16
3.29281e-16
2.37275e-16
1.4527e-16
7.59051e-17
5.33501e-17
3.07952e-17
1.70245e-17
1.07367e-17
4.62605e-18
3.00009e-18
1.37412e-18
7.42135e-19
2.85345e-19
1.42977e-19
5.06171e-20
1.53684e-20
6.83549e-21
3.04399e-21
9.21086e-22
0
)


113
(
0
1.9104e-13
6.35866e-13
1.58371e-12
3.27587e-12
6.13337e-12
1.08699e-11
1.83899e-11
2.96235e-11
4.58452e-11
6.89853e-11
1.01049e-10
1.44114e-10
2.00408e-10
2.72554e-10
3.6702e-10
4.88167e-10
6.36221e-10
8.14783e-10
1.02745e-09
1.27814e-09
1.57071e-09
1.90715e-09
2.29423e-09
2.7221e-09
3.18818e-09
3.69806e-09
4.25133e-09
4.84299e-09
5.465e-09
6.10602e-09
6.75606e-09
7.4003e-09
8.03329e-09
8.64731e-09
9.23731e-09
9.78778e-09
1.02838e-08
1.07179e-08
1.10866e-08
1.13794e-08
1.15875e-08
1.17088e-08
1.1738e-08
1.16944e-08
1.15702e-08
1.13488e-08
1.10733e-08
1.07258e-08
1.03025e-08
9.82131e-09
9.29829e-09
8.75067e-09
8.18705e-09
7.60851e-09
7.01798e-09
6.43246e-09
5.85898e-09
5.30107e-09
4.76772e-09
4.25922e-09
3.77398e-09
3.31862e-09
2.9083e-09
2.52518e-09
2.17609e-09
1.87332e-09
1.59254e-09
1.34985e-09
1.13672e-09
9.40727e-10
7.85912e-10
6.42104e-10
5.26261e-10
4.25933e-10
3.40874e-10
2.73413e-10
2.12763e-10
1.69381e-10
1.28794e-10
1.01177e-10
7.58127e-11
5.79494e-11
4.26678e-11
3.14929e-11
2.27822e-11
1.60552e-11
1.14707e-11
7.60019e-12
5.38268e-12
3.47542e-12
2.87627e-12
2.27712e-12
1.77499e-12
1.44837e-12
1.12175e-12
8.45943e-13
6.7521e-13
5.04477e-13
3.7692e-13
2.86143e-13
1.96971e-13
1.48406e-13
9.98406e-14
7.00252e-14
4.3558e-14
2.83973e-14
1.63237e-14
8.31208e-15
5.35601e-15
3.22447e-15
1.48164e-15
0
)


113
(
0
1.85625e-11
4.15206e-11
7.22411e-11
1.11092e-10
1.59212e-10
2.17796e-10
2.87938e-10
3.70602e-10
4.66594e-10
5.76579e-10
7.01095e-10
8.42717e-10
1.00267e-09
1.17787e-09
1.36802e-09
1.56955e-09
1.78829e-09
2.02386e-09
2.26843e-09
2.52324e-09
2.8002e-09
3.08408e-09
3.37605e-09
3.67115e-09
3.97567e-09
4.28631e-09
4.59569e-09
4.89758e-09
5.19267e-09
5.48517e-09
5.77112e-09
6.05717e-09
6.32564e-09
6.57802e-09
6.80193e-09
6.99677e-09
7.18304e-09
7.34912e-09
7.48889e-09
7.59897e-09
7.68629e-09
7.74529e-09
7.77526e-09
7.7734e-09
7.75279e-09
7.70509e-09
7.62343e-09
7.527e-09
7.40329e-09
7.24567e-09
7.06377e-09
6.87169e-09
6.66876e-09
6.44217e-09
6.19537e-09
5.95052e-09
5.69856e-09
5.43601e-09
5.16022e-09
4.8791e-09
4.59562e-09
4.31092e-09
4.03919e-09
3.7711e-09
3.506e-09
3.2443e-09
2.98681e-09
2.73952e-09
2.50604e-09
2.28056e-09
2.06982e-09
1.86473e-09
1.67469e-09
1.49734e-09
1.33246e-09
1.18848e-09
1.05258e-09
9.25148e-10
7.99906e-10
6.91014e-10
5.87922e-10
5.04138e-10
4.27418e-10
3.61934e-10
3.04968e-10
2.5486e-10
2.10092e-10
1.67104e-10
1.35831e-10
1.0696e-10
9.52792e-11
8.35989e-11
7.29934e-11
6.43321e-11
5.56708e-11
4.77521e-11
4.13687e-11
3.49854e-11
2.95096e-11
2.48068e-11
2.01504e-11
1.66652e-11
1.318e-11
1.04346e-11
7.82268e-12
5.81171e-12
4.00928e-12
2.49223e-12
1.81444e-12
1.19798e-12
6.01525e-13
0
)


113
(
0
7.54376e-11
1.4927e-10
2.29247e-10
3.16778e-10
4.12656e-10
5.17123e-10
6.30019e-10
7.50981e-10
8.79557e-10
1.01527e-09
1.15764e-09
1.30617e-09
1.4604e-09
1.61982e-09
1.78421e-09
1.95306e-09
2.12519e-09
2.29998e-09
2.47679e-09
2.65495e-09
2.83378e-09
3.01256e-09
3.19028e-09
3.37001e-09
3.54754e-09
3.73276e-09
3.90907e-09
4.06828e-09
4.22422e-09
4.37954e-09
4.52197e-09
4.65785e-09
4.78583e-09
4.91494e-09
5.01621e-09
5.10493e-09
5.19111e-09
5.27488e-09
5.35222e-09
5.40014e-09
5.43877e-09
5.47296e-09
5.49347e-09
5.50344e-09
5.50158e-09
5.48527e-09
5.46854e-09
5.42646e-09
5.38897e-09
5.32709e-09
5.25412e-09
5.17588e-09
5.09114e-09
4.99729e-09
4.90342e-09
4.79381e-09
4.67024e-09
4.53747e-09
4.4144e-09
4.28401e-09
4.14396e-09
3.9895e-09
3.842e-09
3.6911e-09
3.53314e-09
3.37629e-09
3.2232e-09
3.0803e-09
2.92439e-09
2.76095e-09
2.57769e-09
2.40781e-09
2.27959e-09
2.15937e-09
2.04702e-09
1.89083e-09
1.71768e-09
1.58407e-09
1.4551e-09
1.33441e-09
1.21595e-09
1.10493e-09
9.97796e-10
8.96861e-10
8.01583e-10
7.10861e-10
6.27675e-10
5.47001e-10
4.75872e-10
4.07479e-10
3.76464e-10
3.45449e-10
3.15901e-10
2.89007e-10
2.62114e-10
2.36423e-10
2.13219e-10
1.90015e-10
1.68551e-10
1.4857e-10
1.28693e-10
1.11432e-10
9.4171e-11
7.87583e-11
6.36793e-11
5.01582e-11
3.71338e-11
2.47268e-11
1.86559e-11
1.25899e-11
6.41948e-12
0
)


113
(
0
1.15447e-10
2.20662e-10
3.2304e-10
4.25827e-10
5.30392e-10
6.37397e-10
7.47019e-10
8.59132e-10
9.73451e-10
1.08962e-09
1.20728e-09
1.32607e-09
1.44563e-09
1.56563e-09
1.68571e-09
1.80544e-09
1.9245e-09
2.04261e-09
2.15946e-09
2.27478e-09
2.38828e-09
2.49967e-09
2.60827e-09
2.71416e-09
2.81711e-09
2.91686e-09
3.01318e-09
3.10583e-09
3.19461e-09
3.2793e-09
3.35971e-09
3.43565e-09
3.50623e-09
3.55839e-09
3.61945e-09
3.67546e-09
3.72639e-09
3.77214e-09
3.81267e-09
3.84791e-09
3.87769e-09
3.90206e-09
3.9331e-09
4.02782e-09
4.03475e-09
4.04941e-09
4.05355e-09
4.04393e-09
4.0319e-09
4.00546e-09
3.97994e-09
3.94995e-09
3.90537e-09
3.83994e-09
3.73453e-09
3.78082e-09
3.72453e-09
3.52313e-09
3.45759e-09
3.38805e-09
3.31549e-09
3.23956e-09
3.15949e-09
3.0772e-09
2.99223e-09
2.90631e-09
2.81844e-09
2.72549e-09
2.63088e-09
2.5353e-09
2.43773e-09
2.33972e-09
2.24065e-09
2.14119e-09
2.04136e-09
1.9415e-09
1.84163e-09
1.74238e-09
1.6433e-09
1.54552e-09
1.44822e-09
1.35255e-09
1.25795e-09
1.16504e-09
1.074e-09
9.84453e-10
8.97813e-10
8.12141e-10
7.30715e-10
6.50671e-10
6.12261e-10
5.73851e-10
5.36274e-10
5.00203e-10
4.64132e-10
4.28803e-10
3.95009e-10
3.61214e-10
3.28533e-10
2.968e-10
2.65131e-10
2.35075e-10
2.05019e-10
1.75926e-10
1.47003e-10
1.18559e-10
9.00364e-11
6.12105e-11
4.65804e-11
3.15295e-11
1.60703e-11
0
)


113
(
0
1.15311e-10
2.19763e-10
3.17328e-10
4.10931e-10
5.01832e-10
5.90881e-10
6.78648e-10
7.65475e-10
8.51542e-10
9.36918e-10
1.0216e-09
1.10556e-09
1.18872e-09
1.271e-09
1.35222e-09
1.43217e-09
1.51088e-09
1.58823e-09
1.66413e-09
1.73847e-09
1.81115e-09
1.88207e-09
1.94303e-09
2.00714e-09
2.06987e-09
2.13028e-09
2.18829e-09
2.24381e-09
2.29677e-09
2.34709e-09
2.39473e-09
2.4396e-09
2.48167e-09
2.52088e-09
2.55712e-09
2.59043e-09
2.6208e-09
2.64821e-09
2.67263e-09
2.69407e-09
2.71239e-09
2.72767e-09
2.73991e-09
2.74916e-09
2.7554e-09
2.75867e-09
2.75899e-09
2.75617e-09
2.75029e-09
2.74151e-09
2.72987e-09
2.71544e-09
2.6983e-09
2.67856e-09
2.65553e-09
2.62982e-09
2.60172e-09
2.57133e-09
2.53794e-09
2.50199e-09
2.46405e-09
2.42385e-09
2.38074e-09
2.33598e-09
2.2892e-09
2.23977e-09
2.18906e-09
2.1361e-09
2.08131e-09
2.02546e-09
1.967e-09
1.90781e-09
1.84676e-09
1.78458e-09
1.72129e-09
1.65658e-09
1.59132e-09
1.52937e-09
1.46717e-09
1.39781e-09
1.32829e-09
1.25827e-09
1.18814e-09
1.11782e-09
1.04753e-09
9.77259e-10
9.07266e-10
8.37366e-10
7.68086e-10
6.99036e-10
6.64783e-10
6.30529e-10
5.96409e-10
5.6253e-10
5.2865e-10
4.94856e-10
4.61237e-10
4.27618e-10
3.94015e-10
3.60427e-10
3.26828e-10
2.92936e-10
2.59045e-10
2.24558e-10
1.8996e-10
1.54294e-10
1.17939e-10
8.04204e-11
6.11881e-11
4.13303e-11
2.09846e-11
0
)


113
(
0
8.77038e-11
1.68592e-10
2.43901e-10
3.15147e-10
3.82927e-10
4.47728e-10
5.09977e-10
5.70025e-10
6.28143e-10
6.84536e-10
7.39356e-10
7.92713e-10
8.44688e-10
8.95337e-10
9.44608e-10
9.92457e-10
1.03905e-09
1.0844e-09
1.12849e-09
1.17131e-09
1.21285e-09
1.25308e-09
1.29179e-09
1.32915e-09
1.36516e-09
1.39978e-09
1.433e-09
1.46478e-09
1.49512e-09
1.52397e-09
1.55134e-09
1.57719e-09
1.60151e-09
1.62428e-09
1.64545e-09
1.66506e-09
1.68309e-09
1.69955e-09
1.71443e-09
1.72772e-09
1.73937e-09
1.7494e-09
1.75783e-09
1.76467e-09
1.76993e-09
1.7736e-09
1.7757e-09
1.77612e-09
1.7749e-09
1.77213e-09
1.7678e-09
1.76194e-09
1.75461e-09
1.74584e-09
1.73524e-09
1.72314e-09
1.70967e-09
1.69491e-09
1.67841e-09
1.6604e-09
1.64121e-09
1.62067e-09
1.59834e-09
1.57499e-09
1.55038e-09
1.52405e-09
1.49688e-09
1.4682e-09
1.43826e-09
1.40758e-09
1.37501e-09
1.34187e-09
1.3073e-09
1.27179e-09
1.23536e-09
1.19764e-09
1.15941e-09
1.11964e-09
1.07958e-09
1.03803e-09
9.96131e-10
9.53056e-10
9.09422e-10
8.64902e-10
8.19613e-10
7.73707e-10
7.26778e-10
6.79508e-10
6.30855e-10
5.81751e-10
5.5667e-10
5.3159e-10
5.06211e-10
4.80293e-10
4.54375e-10
4.28142e-10
4.01258e-10
3.74374e-10
3.46886e-10
3.18882e-10
2.90829e-10
2.61548e-10
2.32266e-10
2.0179e-10
1.71094e-10
1.3896e-10
1.06107e-10
7.2132e-11
5.47348e-11
3.68576e-11
1.86389e-11
0
)


113
(
0
4.72102e-11
9.18554e-11
1.34084e-10
1.74332e-10
2.12712e-10
2.49331e-10
2.84316e-10
3.17793e-10
3.49878e-10
3.80672e-10
4.10262e-10
4.38721e-10
4.66108e-10
4.92476e-10
5.17802e-10
5.42081e-10
5.65466e-10
5.87985e-10
6.09661e-10
6.30514e-10
6.50562e-10
6.69815e-10
6.88174e-10
7.05778e-10
7.22637e-10
7.38758e-10
7.54148e-10
7.68812e-10
7.82756e-10
7.95984e-10
8.085e-10
8.20308e-10
8.3141e-10
8.4181e-10
8.51494e-10
8.60483e-10
8.68784e-10
8.764e-10
8.83332e-10
8.89584e-10
8.95136e-10
9.00002e-10
9.0419e-10
9.07707e-10
9.10554e-10
9.12736e-10
9.14256e-10
9.15071e-10
9.15191e-10
9.14654e-10
9.13457e-10
9.11615e-10
9.0914e-10
9.06049e-10
9.02172e-10
8.97638e-10
8.92508e-10
8.86807e-10
8.80334e-10
8.73183e-10
8.65496e-10
8.57191e-10
8.48054e-10
8.3843e-10
8.28205e-10
8.17141e-10
8.05654e-10
7.9341e-10
7.80501e-10
7.67208e-10
7.52875e-10
7.38222e-10
7.22742e-10
7.06687e-10
6.90066e-10
6.72597e-10
6.54799e-10
6.35896e-10
6.16786e-10
5.96512e-10
5.75934e-10
5.54347e-10
5.32231e-10
5.09274e-10
4.85521e-10
4.61127e-10
4.35599e-10
4.09692e-10
3.82205e-10
3.5421e-10
3.39619e-10
3.25028e-10
3.10123e-10
2.9465e-10
2.79177e-10
2.63406e-10
2.47018e-10
2.30631e-10
2.1374e-10
1.96421e-10
1.79066e-10
1.60824e-10
1.42581e-10
1.23587e-10
1.04455e-10
8.45276e-11
6.42437e-11
4.34228e-11
3.28276e-11
2.20301e-11
1.10959e-11
0
)


113
(
0
3.89757e-12
7.69939e-12
1.14017e-11
1.50152e-11
1.85383e-11
2.19694e-11
2.53089e-11
2.85578e-11
3.17178e-11
3.47907e-11
3.7778e-11
4.06814e-11
4.35017e-11
4.62402e-11
4.88917e-11
5.14527e-11
5.39339e-11
5.63361e-11
5.86598e-11
6.09053e-11
6.3073e-11
6.51629e-11
6.71637e-11
6.90886e-11
7.09377e-11
7.27113e-11
7.44096e-11
7.60328e-11
7.75811e-11
7.90547e-11
8.0454e-11
8.17789e-11
8.303e-11
8.42072e-11
8.53093e-11
8.63382e-11
8.72949e-11
8.81797e-11
8.89926e-11
8.9734e-11
9.0402e-11
9.09977e-11
9.15224e-11
9.19765e-11
9.23601e-11
9.26737e-11
9.29176e-11
9.3087e-11
9.31831e-11
9.32095e-11
9.31659e-11
9.30535e-11
9.28736e-11
9.26277e-11
9.22973e-11
9.1896e-11
9.14301e-11
9.0902e-11
9.02895e-11
8.96023e-11
8.88559e-11
8.80411e-11
8.71332e-11
8.61706e-11
8.51402e-11
8.40145e-11
8.28406e-11
8.158e-11
8.02427e-11
7.8861e-11
7.73588e-11
7.58193e-11
7.41834e-11
7.24804e-11
7.07114e-11
6.88436e-11
6.69377e-11
6.49041e-11
6.28469e-11
6.06571e-11
5.84336e-11
5.60979e-11
5.37054e-11
5.12223e-11
4.86573e-11
4.60263e-11
4.32848e-11
4.05066e-11
3.75845e-11
3.46196e-11
3.30872e-11
3.15549e-11
2.99984e-11
2.83982e-11
2.6798e-11
2.51769e-11
2.35127e-11
2.18485e-11
2.01524e-11
1.84291e-11
1.67038e-11
1.49274e-11
1.31511e-11
1.13354e-11
9.51256e-12
7.65139e-12
5.77427e-12
3.87365e-12
2.91557e-12
1.94931e-12
9.77738e-13
0
)

)


10
(

113
(
0
1.50998e-25
2.62385e-23
6.4405e-22
6.77191e-21
4.87523e-20
2.71784e-19
1.24915e-18
4.88514e-18
1.66257e-17
5.04561e-17
1.355e-16
3.235e-16
7.04615e-16
1.50077e-15
3.4e-15
7.585e-15
1.62538e-14
3.215e-14
7.065e-14
1.60692e-13
3.695e-13
8.53333e-13
1.87385e-12
3.84308e-12
9.26e-12
2.19083e-11
5.01167e-11
1.09775e-10
2.28083e-10
4.78917e-10
1.07345e-09
2.19333e-09
4.185e-09
7.65091e-09
1.35273e-08
2.23091e-08
3.41364e-08
4.85e-08
6.30455e-08
7.42364e-08
7.904e-08
7.54091e-08
6.547e-08
5.30545e-08
4.11273e-08
3.08545e-08
2.29333e-08
1.71167e-08
1.27e-08
9.8e-09
7.355e-09
5.47615e-09
4.06571e-09
3.04429e-09
2.25714e-09
1.61429e-09
1.1e-09
7.84667e-10
5.35437e-10
3.52312e-10
2.395e-10
1.49275e-10
9.3525e-11
5.88882e-11
3.33e-11
2.23556e-11
1.26756e-11
8.05333e-12
4.53778e-12
2.68222e-12
1.54242e-12
8.79789e-13
5.14474e-13
2.76579e-13
1.672e-13
8.995e-14
5.418e-14
2.878e-14
1.7212e-14
9.102e-15
5.424e-15
2.854e-15
1.65453e-15
7.97684e-16
4.834e-16
2.294e-16
1.2895e-16
5.16167e-17
2.87833e-17
1.10106e-17
8.02824e-18
5.04588e-18
2.52344e-18
1.84063e-18
1.15781e-18
4.75e-19
3.406e-19
2.062e-19
7.18e-20
4.57042e-20
1.96083e-20
6.94455e-21
3.23545e-21
8.076e-22
3.016e-22
6.06886e-23
7.93233e-24
8.94e-25
3.9175e-25
5.004e-26
3.2225e-27
0
)


113
(
0
6.19697e-20
6.25855e-19
3.70997e-18
1.62029e-17
6.40874e-17
2.43546e-16
8.54718e-16
2.89016e-15
9.37193e-15
2.809e-14
7.91363e-14
2.0166e-13
4.74669e-13
1.14883e-12
2.71853e-12
6.04235e-12
1.27364e-11
2.41993e-11
4.68558e-11
9.13121e-11
1.65825e-10
2.88664e-10
4.82922e-10
7.83442e-10
1.25979e-09
1.95033e-09
2.90555e-09
4.17887e-09
5.8244e-09
7.94616e-09
1.05605e-08
1.36536e-08
1.71329e-08
2.09043e-08
2.48555e-08
2.88199e-08
3.25898e-08
3.59522e-08
3.86271e-08
4.05087e-08
4.15136e-08
4.15403e-08
4.06769e-08
3.88937e-08
3.64155e-08
3.34101e-08
3.00376e-08
2.64683e-08
2.28662e-08
1.94507e-08
1.62672e-08
1.33941e-08
1.08271e-08
8.64103e-09
6.84393e-09
5.3145e-09
4.0407e-09
3.12415e-09
2.35455e-09
1.7319e-09
1.30407e-09
9.4233e-10
6.84298e-10
4.96818e-10
3.39573e-10
2.49254e-10
1.67181e-10
1.18086e-10
7.8363e-11
5.26966e-11
3.48629e-11
2.22508e-11
1.44552e-11
8.72371e-12
5.66655e-12
3.27798e-12
2.06785e-12
1.15233e-12
7.081e-13
3.81692e-13
2.28233e-13
1.18012e-13
6.76879e-14
3.23384e-14
1.91796e-14
8.48647e-15
4.76329e-15
2.02244e-15
1.15251e-15
4.71861e-16
3.52355e-16
2.32849e-16
1.30879e-16
9.90489e-17
6.72193e-17
3.53897e-17
2.63388e-17
1.7288e-17
8.23715e-18
5.73923e-18
3.24131e-18
1.78529e-18
1.02388e-18
4.73849e-19
2.40908e-19
1.02469e-19