/*--------------------------------*- C++ -*----------------------------------*\
| =========                 |                                                 |
| \\      /  F ield         | OpenFOAM: The Open Source CFD Toolbox           |
|  \\    /   O peration     | Version:  2.3.0                                 |
|   \\  /    A nd           | Web:      www.OpenFOAM.org                      |
|    \\/     M anipulation  |                                                 |
\*---------------------------------------------------------------------------*/
FoamFile
{
    version     2.0;
    format      ascii;
    class       dictionary;
    location    "constant";
    object      H2CN;
}
// * * * * * * * * * * * * * * * * * * * * * * * * * * * * * * * * * * * * * //

H2CN_table
13
(

10
(

113
(
0
8.64958e-24
1.71325e-23
1.6635e-23
9.05842e-24
4.34119e-24
3.01579e-24
2.59066e-24
2.45434e-24
2.49762e-24
2.74927e-24
3.17231e-24
3.73e-24
4.97528e-24
7.00621e-24
1.01677e-23
1.85055e-23
3.2647e-23
6.88055e-23
1.71706e-22
3.33791e-22
1.0689e-21
2.77543e-21
7.06556e-21
2.50011e-20
5.43348e-20
2.66074e-19
1.47559e-18
4.12093e-18
3.78827e-17
2.03171e-16
8.33983e-16
5.99836e-15
1.54358e-14
9.22283e-14
3.47462e-13
8.39234e-13
2.63828e-12
5.79127e-12
1.19811e-11
2.62057e-11
4.5336e-11
7.39696e-11
9.41078e-11
1.06084e-10
1.03727e-10
9.82782e-11
8.98983e-11
8.18822e-11
7.46389e-11
6.79599e-11
6.19171e-11
5.64687e-11
5.14167e-11
4.70386e-11
4.29777e-11
3.95153e-11
3.62975e-11
3.36667e-11
3.12995e-11
2.92781e-11
2.74686e-11
2.59196e-11
2.46112e-11
2.33954e-11
2.23306e-11
2.1278e-11
2.02688e-11
1.926e-11
1.826e-11
1.726e-11
1.61498e-11
1.50186e-11
1.3777e-11
1.24707e-11
1.1193e-11
9.95638e-12
8.76677e-12
7.80659e-12
6.84642e-12
6.23485e-12
5.65775e-12
5.28575e-12
5.02912e-12
4.84785e-12
4.78955e-12
4.74688e-12
4.79275e-12
4.83862e-12
4.5801e-12
4.31215e-12
4.11133e-12
3.88939e-12
3.66745e-12
3.44551e-12
3.39348e-12
3.37382e-12
3.35416e-12
3.37101e-12
3.48177e-12
3.59253e-12
3.65284e-12
3.34313e-12
3.03343e-12
2.64e-12
2.14e-12
1.64086e-12
1.14395e-12
6.84482e-13
4.66857e-13
2.77571e-13
1.13705e-13
0
)


113
(
0
6.55559e-24
1.05221e-23
1.193e-23
1.73894e-23
6.14752e-23
2.65265e-22
2.08349e-21
1.25344e-20
4.00441e-20
1.90771e-19
8.6486e-19
1.95016e-18
8.82703e-18
2.88103e-17
6.76539e-17
2.19863e-16
4.95831e-16
1.23766e-15
3.1669e-15
6.14911e-15
1.52362e-14
2.98203e-14
5.81197e-14
1.15838e-13
1.92147e-13
3.68478e-13
6.26541e-13
1.00222e-12
1.65653e-12
2.49969e-12
3.79127e-12
5.56574e-12
7.66891e-12
1.0751e-11
1.43043e-11
1.84823e-11
2.35079e-11
2.88615e-11
3.46974e-11
4.06231e-11
4.6526e-11
5.19651e-11
5.67947e-11
6.10385e-11
6.38317e-11
6.61383e-11
6.67424e-11
6.67668e-11
6.55594e-11
6.37066e-11
6.11258e-11
5.81261e-11
5.48471e-11
5.14371e-11
4.79655e-11
4.46658e-11
4.14362e-11
3.85099e-11
3.57197e-11
3.32311e-11
3.09272e-11
2.88504e-11
2.69831e-11
2.524e-11
2.36996e-11
2.22061e-11
2.0879e-11
1.95568e-11
1.83537e-11
1.71507e-11
1.60057e-11
1.48718e-11
1.3777e-11
1.27053e-11
1.16729e-11
1.06972e-11
9.747e-12
8.92102e-12
8.09503e-12
7.44555e-12
6.81354e-12
6.30829e-12
5.87436e-12
5.49747e-12
5.21364e-12
4.94117e-12
4.73312e-12
4.52507e-12
4.33505e-12
4.14558e-12
4.05324e-12
3.96165e-12
3.87006e-12
3.77846e-12
3.68242e-12
3.58553e-12
3.48864e-12
3.37898e-12
3.23651e-12
3.09404e-12
2.9405e-12
2.70575e-12
2.47101e-12
2.19427e-12
1.86409e-12
1.51803e-12
1.13114e-12
7.3661e-13
5.38158e-13
3.48709e-13
1.69503e-13
0
)


113
(
0
1.67257e-16
5.7138e-16
1.45861e-15
3.1171e-15
5.92629e-15
1.05249e-14
1.93835e-14
3.25298e-14
4.99798e-14
7.84802e-14
1.18696e-13
1.68118e-13
2.50799e-13
3.51467e-13
4.78016e-13
6.63882e-13
8.79628e-13
1.16886e-12
1.52902e-12
1.95206e-12
2.47208e-12
3.07237e-12
3.87043e-12
4.74845e-12
5.67621e-12
6.83672e-12
8.10992e-12
9.54528e-12
1.11272e-11
1.27893e-11
1.46154e-11
1.65671e-11
1.86016e-11
2.07524e-11
2.29358e-11
2.51623e-11
2.74047e-11
2.96309e-11
3.18054e-11
3.38782e-11
3.58794e-11
3.76908e-11
3.93514e-11
4.08671e-11
4.20752e-11
4.31826e-11
4.39497e-11
4.45739e-11
4.48942e-11
4.49903e-11
4.48337e-11
4.44327e-11
4.38687e-11
4.30237e-11
4.20463e-11
4.08917e-11
3.96646e-11
3.82695e-11
3.67991e-11
3.5269e-11
3.37022e-11
3.21172e-11
3.05152e-11
2.89044e-11
2.72794e-11
2.56763e-11
2.41509e-11
2.26299e-11
2.12132e-11
1.97966e-11
1.84932e-11
1.72113e-11
1.60195e-11
1.48806e-11
1.38009e-11
1.28061e-11
1.18351e-11
1.09799e-11
1.01248e-11
9.39313e-12
8.67368e-12
8.0329e-12
7.43636e-12
6.88075e-12
6.39193e-12
5.91546e-12
5.50891e-12
5.10237e-12
4.75164e-12
4.40263e-12
4.23545e-12
4.07058e-12
3.90572e-12
3.74085e-12
3.57001e-12
3.39805e-12
3.22608e-12
3.04582e-12
2.84422e-12
2.64263e-12
2.43771e-12
2.20835e-12
1.97899e-12
1.7356e-12
1.47433e-12
1.20653e-12
9.21927e-13
6.30905e-13
4.83562e-13
3.34166e-13
1.79317e-13
0
)


113
(
0
3.38526e-14
7.68191e-14
1.35488e-13
2.1146e-13
3.06583e-13
4.25054e-13
5.74646e-13
7.50651e-13
9.5114e-13
1.20016e-12
1.48341e-12
1.79353e-12
2.18544e-12
2.59515e-12
3.03048e-12
3.58e-12
4.16589e-12
4.7899e-12
5.47962e-12
6.22762e-12
6.96641e-12
7.74669e-12
8.64795e-12
9.62198e-12
1.06352e-11
1.15631e-11
1.25835e-11
1.37373e-11
1.4861e-11
1.59962e-11
1.72029e-11
1.8371e-11
1.95144e-11
2.06498e-11
2.17846e-11
2.29187e-11
2.4004e-11
2.50639e-11
2.60786e-11
2.70371e-11
2.79585e-11
2.87928e-11
2.95675e-11
3.02851e-11
3.08867e-11
3.14511e-11
3.18936e-11
3.22857e-11
3.25703e-11
3.27661e-11
3.28617e-11
3.28308e-11
3.27154e-11
3.25166e-11
3.22786e-11
3.19711e-11
3.16352e-11
3.10794e-11
3.04248e-11
2.97841e-11
2.91518e-11
2.84108e-11
2.75694e-11
2.67094e-11
2.58193e-11
2.49127e-11
2.39476e-11
2.29814e-11
2.19868e-11
2.09922e-11
2.00404e-11
1.90967e-11
1.81404e-11
1.71767e-11
1.62123e-11
1.52468e-11
1.43023e-11
1.34603e-11
1.26183e-11
1.18251e-11
1.10366e-11
1.02851e-11
9.55438e-12
8.83806e-12
8.14529e-12
7.46547e-12
6.85901e-12
6.25255e-12
5.69589e-12
5.14077e-12
4.87642e-12
4.61625e-12
4.35607e-12
4.09589e-12
3.84353e-12
3.59266e-12
3.34179e-12
3.09161e-12
2.8432e-12
2.59479e-12
2.34621e-12
2.09637e-12
1.84654e-12
1.59599e-12
1.34453e-12
1.09271e-12
8.39965e-13
5.82923e-13
4.52604e-13
3.1433e-13
1.67223e-13
0
)


113
(
0
1.93801e-13
3.87739e-13
6.01219e-13
8.38761e-13
1.10189e-12
1.39371e-12
1.7187e-12
2.06843e-12
2.44008e-12
2.84991e-12
3.28305e-12
3.73451e-12
4.22723e-12
4.73632e-12
5.26894e-12
5.83169e-12
6.40786e-12
7.01274e-12
7.63377e-12
8.26914e-12
8.92768e-12
9.59412e-12
1.02757e-11
1.09897e-11
1.17219e-11
1.24541e-11
1.31717e-11
1.38684e-11
1.46368e-11
1.53921e-11
1.60305e-11
1.67218e-11
1.7446e-11
1.81198e-11
1.87341e-11
1.92696e-11
1.98852e-11
2.04817e-11
2.09887e-11
2.14867e-11
2.19739e-11
2.24124e-11
2.28204e-11
2.31991e-11
2.35252e-11
2.3833e-11
2.40747e-11
2.4301e-11
2.44943e-11
2.46405e-11
2.47334e-11
2.47614e-11
2.47459e-11
2.47386e-11
2.47352e-11
2.45795e-11
2.43615e-11
2.41375e-11
2.39108e-11
2.36473e-11
2.33614e-11
2.29754e-11
2.24971e-11
2.20507e-11
2.16563e-11
2.12362e-11
2.07253e-11
2.02114e-11
1.96245e-11
1.90376e-11
1.84794e-11
1.79267e-11
1.72126e-11
1.64037e-11
1.56836e-11
1.50912e-11
1.44848e-11
1.38108e-11
1.31367e-11
1.24603e-11
1.17835e-11
1.111e-11
1.04381e-11
9.77034e-12
9.10922e-12
8.4503e-12
7.80382e-12
7.15734e-12
6.52696e-12
5.89707e-12
5.58861e-12
5.28219e-12
4.97577e-12
4.66936e-12
4.37007e-12
4.07214e-12
3.77421e-12
3.47868e-12
3.18931e-12
2.89995e-12
2.61155e-12
2.33025e-12
2.04895e-12
1.76978e-12
1.49334e-12
1.21611e-12
9.36841e-13
6.48687e-13
5.01459e-13
3.44318e-13
1.79367e-13
0
)


113
(
0
3.68083e-13
7.09432e-13
1.04604e-12
1.38832e-12
1.74033e-12
2.10532e-12
2.48627e-12
2.8789e-12
3.28176e-12
3.70134e-12
4.13007e-12
4.56599e-12
5.01606e-12
5.47091e-12
5.93261e-12
6.40149e-12
6.87323e-12
7.35012e-12
7.82882e-12
8.30912e-12
8.78996e-12
9.27028e-12
9.74898e-12
1.02245e-11
1.06982e-11
1.11644e-11
1.16265e-11
1.20826e-11
1.25285e-11
1.29688e-11
1.33973e-11
1.38151e-11
1.42237e-11
1.45095e-11
1.48302e-11
1.51971e-11
1.55444e-11
1.58815e-11
1.62006e-11
1.65017e-11
1.67913e-11
1.70564e-11
1.74461e-11
1.79554e-11
1.81859e-11
1.83726e-11
1.8635e-11
1.88547e-11
1.89838e-11
1.90713e-11
1.91119e-11
1.91283e-11
1.91286e-11
1.92143e-11
1.93401e-11
1.89754e-11
1.84105e-11
1.81554e-11
1.80393e-11
1.78945e-11
1.7732e-11
1.75457e-11
1.73374e-11
1.71121e-11
1.68592e-11
1.6615e-11
1.64018e-11
1.61834e-11
1.58388e-11
1.54942e-11
1.51185e-11
1.47369e-11
1.43337e-11
1.39178e-11
1.34892e-11
1.30423e-11
1.25905e-11
1.21156e-11
1.16407e-11
1.11436e-11
1.06443e-11
1.01318e-11
9.61181e-12
9.0856e-12
8.54914e-12
8.01088e-12
7.46232e-12
6.91376e-12
6.35801e-12
5.80203e-12
5.523e-12
5.24364e-12
4.96429e-12
4.68493e-12
4.40593e-12
4.127e-12
3.84806e-12
3.56934e-12
3.29115e-12
3.01295e-12
2.73457e-12
2.45484e-12
2.17511e-12
1.89232e-12
1.60564e-12
1.31495e-12
1.01396e-12
6.99481e-13
5.37893e-13
3.66247e-13
1.88292e-13
0
)


113
(
0
4.30673e-13
8.25718e-13
1.19859e-12
1.55973e-12
1.91399e-12
2.2643e-12
2.61315e-12
2.96197e-12
3.31098e-12
3.66102e-12
4.01166e-12
4.36277e-12
4.71434e-12
5.06569e-12
5.41672e-12
5.76634e-12
6.11509e-12
6.4613e-12
6.8052e-12
7.14707e-12
7.48392e-12
7.79634e-12
8.04079e-12
8.32712e-12
8.63679e-12
8.93643e-12
9.23142e-12
9.51973e-12
9.79821e-12
1.00714e-11
1.03342e-11
1.05884e-11
1.08367e-11
1.10703e-11
1.12972e-11
1.15151e-11
1.1719e-11
1.19158e-11
1.21001e-11
1.22722e-11
1.24365e-11
1.25846e-11
1.27226e-11
1.2851e-11
1.29618e-11
1.30667e-11
1.3152e-11
1.32297e-11
1.32914e-11
1.33417e-11
1.3379e-11
1.34012e-11
1.34133e-11
1.34076e-11
1.33936e-11
1.33603e-11
1.33192e-11
1.3259e-11
1.31901e-11
1.31037e-11
1.30065e-11
1.28944e-11
1.27686e-11
1.26319e-11
1.24774e-11
1.23165e-11
1.21334e-11
1.19492e-11
1.17378e-11
1.15264e-11
1.12917e-11
1.10526e-11
1.07965e-11
1.05304e-11
1.02537e-11
9.96154e-12
9.67585e-12
9.42158e-12
9.16731e-12
8.82487e-12
8.4737e-12
8.10962e-12
7.73828e-12
7.35999e-12
6.97038e-12
6.57835e-12
6.17256e-12
5.76678e-12
5.34713e-12
4.92706e-12
4.71198e-12
4.4953e-12
4.27863e-12
4.06195e-12
3.8394e-12
3.61573e-12
3.39206e-12
3.16597e-12
2.93365e-12
2.70133e-12
2.4676e-12
2.22358e-12
1.97956e-12
1.72871e-12
1.46918e-12
1.20444e-12
9.26287e-13
6.35416e-13
4.86036e-13
3.28964e-13
1.67692e-13
0
)


113
(
0
3.68329e-13
7.10882e-13
1.03218e-12
1.33809e-12
1.63157e-12
1.91387e-12
2.18597e-12
2.45164e-12
2.71194e-12
2.96418e-12
3.21209e-12
3.4566e-12
3.69397e-12
3.92854e-12
4.1591e-12
4.38428e-12
4.60696e-12
4.824e-12
5.03736e-12
5.24744e-12
5.45104e-12
5.65197e-12
5.84735e-12
6.03774e-12
6.22516e-12
6.40462e-12
6.5806e-12
6.75158e-12
6.91553e-12
7.07581e-12
7.2289e-12
7.37622e-12
7.51967e-12
7.65356e-12
7.78315e-12
7.90702e-12
8.02216e-12
8.1329e-12
8.23595e-12
8.33157e-12
8.42252e-12
8.50369e-12
8.57891e-12
8.6484e-12
8.70753e-12
8.76325e-12
8.80742e-12
8.84722e-12
8.87774e-12
8.90162e-12
8.91802e-12
8.92567e-12
8.9275e-12
8.91907e-12
8.9058e-12
8.88147e-12
8.85261e-12
8.81266e-12
8.76774e-12
8.71262e-12
8.65127e-12
8.58123e-12
8.50318e-12
8.41871e-12
8.32377e-12
8.22511e-12
8.11324e-12
8.0007e-12
7.87191e-12
7.74312e-12
7.60022e-12
7.45462e-12
7.29856e-12
7.13635e-12
6.96742e-12
6.78881e-12
6.60744e-12
6.41261e-12
6.21777e-12
6.00835e-12
5.79748e-12
5.57646e-12
5.34973e-12
5.11699e-12
4.87445e-12
4.6295e-12
4.37089e-12
4.11228e-12
3.83734e-12
3.5619e-12
3.41725e-12
3.27041e-12
3.12357e-12
2.97673e-12
2.82133e-12
2.6643e-12
2.50727e-12
2.347e-12
2.17838e-12
2.00976e-12
1.83958e-12
1.6579e-12
1.47622e-12
1.28836e-12
1.09265e-12
8.93039e-13
6.83433e-13
4.65746e-13
3.54445e-13
2.38812e-13
1.21001e-13
0
)


113
(
0
2.22724e-13
4.34304e-13
6.35258e-13
8.27408e-13
1.01163e-12
1.18794e-12
1.35607e-12
1.51857e-12
1.67622e-12
1.82601e-12
1.97133e-12
2.11315e-12
2.24743e-12
2.3788e-12
2.50599e-12
2.62779e-12
2.74716e-12
2.86118e-12
2.97196e-12
3.07985e-12
3.18242e-12
3.28291e-12
3.37917e-12
3.47188e-12
3.56249e-12
3.64777e-12
3.73086e-12
3.81079e-12
3.88651e-12
3.96009e-12
4.02954e-12
4.09581e-12
4.15996e-12
4.21902e-12
4.27587e-12
4.32976e-12
4.37927e-12
4.4266e-12
4.47014e-12
4.51011e-12
4.54784e-12
4.58094e-12
4.61126e-12
4.63891e-12
4.66178e-12
4.68309e-12
4.69913e-12
4.71321e-12
4.72309e-12
4.73e-12
4.73356e-12
4.73322e-12
4.73028e-12
4.72279e-12
4.71315e-12
4.69861e-12
4.68205e-12
4.66057e-12
4.63688e-12
4.60865e-12
4.57764e-12
4.54272e-12
4.5042e-12
4.46277e-12
4.41657e-12
4.36865e-12
4.31463e-12
4.26028e-12
4.19826e-12
4.13623e-12
4.06733e-12
3.99712e-12
3.92161e-12
3.843e-12
3.76082e-12
3.67352e-12
3.58467e-12
3.48828e-12
3.3919e-12
3.28681e-12
3.18086e-12
3.06841e-12
2.95232e-12
2.83212e-12
2.70521e-12
2.57657e-12
2.43806e-12
2.29955e-12
2.14892e-12
1.99792e-12
1.91734e-12
1.83516e-12
1.75298e-12
1.6708e-12
1.5827e-12
1.49348e-12
1.40425e-12
1.313e-12
1.21652e-12
1.12004e-12
1.02269e-12
9.18981e-13
8.15274e-13
7.08574e-13
5.98065e-13
4.85896e-13
3.69454e-13
2.4991e-13
1.89206e-13
1.26969e-13
6.40038e-14
0
)


113
(
0
2.05184e-14
4.05467e-14
6.00606e-14
7.91081e-14
9.77033e-14
1.15813e-13
1.33372e-13
1.50523e-13
1.67313e-13
1.83474e-13
1.99248e-13
2.14718e-13
2.29488e-13
2.43971e-13
2.58041e-13
2.71552e-13
2.84804e-13
2.97477e-13
3.09786e-13
3.21771e-13
3.33145e-13
3.44276e-13
3.54911e-13
3.65125e-13
3.75088e-13
3.84413e-13
3.93475e-13
4.02158e-13
4.10334e-13
4.18252e-13
4.25676e-13
4.3272e-13
4.39509e-13
4.45695e-13
4.51618e-13
4.57194e-13
4.62256e-13
4.67064e-13
4.71433e-13
4.75389e-13
4.79088e-13
4.82258e-13
4.85112e-13
4.87664e-13
4.89678e-13
4.91517e-13
4.92768e-13
4.938e-13
4.94368e-13
4.94608e-13
4.94478e-13
4.93922e-13
4.9308e-13
4.91742e-13
4.90169e-13
4.88063e-13
4.85738e-13
4.8288e-13
4.79781e-13
4.76191e-13
4.723e-13
4.67987e-13
4.63285e-13
4.58268e-13
4.52737e-13
4.47021e-13
4.40647e-13
4.34239e-13
4.27006e-13
4.19773e-13
4.11806e-13
4.03698e-13
3.9503e-13
3.86033e-13
3.76664e-13
3.66759e-13
3.56696e-13
3.45862e-13
3.35028e-13
3.23328e-13
3.11543e-13
2.99138e-13
2.86385e-13
2.73261e-13
2.5953e-13
2.45653e-13
2.30944e-13
2.16235e-13
2.00587e-13
1.8491e-13
1.76716e-13
1.68409e-13
1.60103e-13
1.51796e-13
1.43119e-13
1.34371e-13
1.25623e-13
1.16763e-13
1.07611e-13
9.84589e-14
8.92641e-14
7.97549e-14
7.02457e-14
6.06042e-14
5.07942e-14
4.09176e-14
3.08697e-14
2.07068e-14
1.55911e-14
1.04218e-14
5.22806e-15
0
)

)


10
(

113
(
0
1.3214e-20
2.87325e-20
3.54544e-20
2.84813e-20
1.73001e-20
1.16693e-20
9.9575e-21
9.76675e-21
1.0265e-20
1.12212e-20
1.26398e-20
1.46798e-20
1.76786e-20
2.22297e-20
2.9722e-20
4.37847e-20
7.05108e-20
1.24252e-19
2.38139e-19
4.90297e-19
1.0641e-18
2.37428e-18
6.42592e-18
1.84778e-17
5.57263e-17
1.73601e-16
5.50534e-16
1.75328e-15
5.53282e-15
1.70893e-14
5.11888e-14
1.47822e-13
4.07464e-13
1.0651e-12
2.64328e-12
6.00973e-12
1.24733e-11
2.481e-11
5.30265e-11
1.28667e-10
3.02582e-10
5.54232e-10
7.57961e-10
8.11376e-10
7.28423e-10
5.88593e-10
4.55276e-10
3.54784e-10
2.84625e-10
2.34973e-10
1.9908e-10
1.71838e-10
1.49962e-10
1.31392e-10
1.15255e-10
1.00487e-10
8.68721e-11
7.43319e-11
6.33e-11
5.36516e-11
4.5062e-11
3.76636e-11
3.16502e-11
2.63329e-11
2.18338e-11
1.82651e-11
1.51079e-11
1.26288e-11
1.06181e-11
8.87901e-12
7.68805e-12
6.62266e-12
5.86754e-12
5.26234e-12
4.80469e-12
4.50733e-12
4.27201e-12
4.20954e-12
4.17907e-12
4.3273e-12
4.52569e-12
4.891e-12
5.35107e-12
5.96188e-12
6.72753e-12
7.61783e-12
8.78295e-12
1.00397e-11
1.19238e-11
1.39759e-11
1.51968e-11
1.64177e-11
1.74479e-11
1.81331e-11
1.88182e-11
1.91205e-11
1.86313e-11
1.8142e-11
1.71692e-11
1.57843e-11
1.43846e-11
1.2612e-11
1.08394e-11
9.01013e-12
7.17178e-12
5.41984e-12
3.74773e-12
2.21705e-12
1.5131e-12
8.96551e-13
3.66715e-13
0
)


113
(
0
1.14378e-20
1.99487e-20
2.34991e-20
2.35346e-20
2.19462e-20
2.25005e-20
3.7578e-20
1.14696e-19
4.29144e-19
1.67521e-18
6.10892e-18
2.03494e-17
6.13851e-17
1.67311e-16
4.45171e-16
1.2573e-15
3.2977e-15
8.07661e-15
1.86487e-14
4.08122e-14
8.49758e-14
1.69336e-13
3.46964e-13
6.78086e-13
1.26599e-12
2.26296e-12
3.88103e-12
6.43914e-12
1.03953e-11
1.62921e-11
2.46318e-11
3.59251e-11
5.0894e-11
7.00805e-11
9.38597e-11
1.21969e-10
1.53932e-10
1.88662e-10
2.24829e-10
2.60646e-10
2.93964e-10
3.23058e-10
3.45966e-10
3.6136e-10
3.68721e-10
3.67755e-10
3.59135e-10
3.43338e-10
3.22048e-10
2.97199e-10
2.69998e-10
2.41715e-10
2.13576e-10
1.8666e-10
1.62377e-10
1.40506e-10
1.20824e-10
1.03219e-10
8.82952e-11
7.54572e-11
6.41093e-11
5.43462e-11
4.63228e-11
3.91646e-11
3.30194e-11
2.80202e-11
2.35279e-11
1.9871e-11
1.68022e-11
1.40743e-11
1.20768e-11
1.0261e-11
8.90129e-12
7.78634e-12
6.91228e-12
6.31684e-12
5.82922e-12
5.63191e-12
5.48503e-12
5.59782e-12
5.77249e-12
6.15315e-12
6.63967e-12
7.29455e-12
8.10113e-12
9.02985e-12
1.01204e-11
1.1265e-11
1.24548e-11
1.3567e-11
1.40294e-11
1.44917e-11
1.48402e-11
1.49826e-11
1.5125e-11
1.51174e-11
1.47997e-11
1.44821e-11
1.39022e-11
1.3099e-11
1.22808e-11
1.10839e-11
9.88692e-12
8.49007e-12
7.05782e-12
5.5401e-12
4.02706e-12
2.54978e-12
1.84032e-12
1.17864e-12
5.66846e-13
0
)


113
(
0
1.07114e-15
3.67267e-15
9.44705e-15
2.01137e-14
3.98699e-14
7.17535e-14
1.19753e-13
1.97357e-13
3.24031e-13
5.08569e-13
7.5561e-13
1.09576e-12
1.57413e-12
2.22314e-12
3.06463e-12
4.18654e-12
5.62852e-12
7.44457e-12
9.67394e-12
1.23267e-11
1.54242e-11
1.91585e-11
2.37972e-11
2.91811e-11
3.52179e-11
4.19435e-11
4.93916e-11
5.75589e-11
6.63921e-11
7.58852e-11
8.62575e-11
9.75551e-11
1.09237e-10
1.20391e-10
1.31648e-10
1.43021e-10
1.54082e-10
1.64772e-10
1.748e-10
1.84024e-10
1.92203e-10
1.9919e-10
2.05002e-10
2.09425e-10
2.12328e-10
2.1377e-10
2.1376e-10
2.12219e-10
2.09369e-10
2.05433e-10
2.00031e-10
1.93162e-10
1.85172e-10
1.76552e-10
1.67475e-10
1.57811e-10
1.47703e-10
1.37296e-10
1.26963e-10
1.16945e-10
1.07138e-10
9.75419e-11
8.82882e-11
7.93725e-11
7.09292e-11
6.32588e-11
5.59884e-11
4.94472e-11
4.35931e-11
3.81374e-11
3.36365e-11
2.93882e-11
2.57801e-11
2.2581e-11
1.97844e-11
1.75966e-11
1.56444e-11
1.42566e-11
1.2965e-11
1.21567e-11
1.14477e-11
1.10688e-11
1.08127e-11
1.07516e-11
1.07979e-11
1.09307e-11
1.11182e-11
1.13239e-11
1.14647e-11
1.15531e-11
1.15351e-11
1.15172e-11
1.14464e-11
1.12803e-11
1.11142e-11
1.0888e-11
1.05377e-11
1.01874e-11
9.72439e-12
9.16537e-12
8.59987e-12
7.87037e-12
7.14087e-12
6.28037e-12
5.39622e-12
4.40111e-12
3.37301e-12
2.30588e-12
1.76507e-12
1.21921e-12
6.54074e-13
0
)


113
(
0
2.04109e-13
4.61941e-13
8.13706e-13
1.26591e-12
1.83519e-12
2.53967e-12
3.397e-12
4.42382e-12
5.63542e-12
7.04571e-12
8.66743e-12
1.06285e-11
1.28559e-11
1.49569e-11
1.72938e-11
2.04043e-11
2.35344e-11
2.68848e-11
3.0584e-11
3.45913e-11
3.87693e-11
4.31184e-11
4.78853e-11
5.29262e-11
5.76928e-11
6.25928e-11
6.80956e-11
7.37758e-11
7.91655e-11
8.46937e-11
9.00012e-11
9.50859e-11
1.00125e-10
1.05277e-10
1.10716e-10
1.15688e-10
1.19946e-10
1.24114e-10
1.27986e-10
1.314e-10
1.34502e-10
1.37179e-10
1.3938e-10
1.41183e-10
1.42515e-10
1.43324e-10
1.43619e-10
1.43438e-10
1.42888e-10
1.42073e-10
1.40625e-10
1.38394e-10
1.35692e-10
1.33068e-10
1.29948e-10
1.2611e-10
1.22058e-10
1.18005e-10
1.14014e-10
1.09737e-10
1.0515e-10
1.00133e-10
9.5039e-11
8.99447e-11
8.48671e-11
8.02162e-11
7.56771e-11
7.1229e-11
6.63058e-11
6.11071e-11
5.70068e-11
5.30872e-11
4.95797e-11
4.59922e-11
4.2326e-11
3.85146e-11
3.4647e-11
3.19831e-11
2.9488e-11
2.75801e-11
2.56646e-11
2.37236e-11
2.18005e-11
1.99062e-11
1.81752e-11
1.65758e-11
1.54058e-11
1.4379e-11
1.33382e-11
1.2314e-11
1.18217e-11
1.13295e-11
1.08358e-11
1.03395e-11
9.84318e-12
9.33716e-12
8.81109e-12
8.28503e-12
7.7339e-12
7.16144e-12
6.58698e-12
5.96214e-12
5.33729e-12
4.67165e-12
3.99861e-12
3.2878e-12
2.5598e-12
1.80065e-12
1.40686e-12
9.84675e-13
5.27128e-13
0
)


113
(
0
1.05653e-12
2.10344e-12
3.25109e-12
4.51992e-12
5.92374e-12
7.46883e-12
9.15559e-12
1.09812e-11
1.29413e-11
1.5031e-11
1.7245e-11
1.95779e-11
2.20244e-11
2.45785e-11
2.72408e-11
3.00076e-11
3.28581e-11
3.5784e-11
3.87765e-11
4.18262e-11
4.49232e-11
4.8057e-11
5.12178e-11
5.49878e-11
5.79354e-11
6.09091e-11
6.4032e-11
6.72026e-11
7.04511e-11
7.34276e-11
7.62793e-11
7.93665e-11
8.16568e-11
8.44072e-11
8.71343e-11
8.93852e-11
9.12397e-11
9.31026e-11
9.47027e-11
9.71542e-11
9.81692e-11
9.94304e-11
1.00459e-10
1.01365e-10
1.02061e-10
1.02561e-10
1.02859e-10
1.02928e-10
1.02785e-10
1.0275e-10
1.02206e-10
1.01401e-10
1.00529e-10
9.94151e-11
9.78765e-11
9.66645e-11
9.53393e-11
9.36862e-11
9.13929e-11
8.91449e-11
8.72514e-11
8.60349e-11
8.27196e-11
7.97858e-11
7.79454e-11
7.60187e-11
7.35036e-11
6.93517e-11
6.62845e-11
6.38464e-11
6.30397e-11
6.13309e-11
5.67783e-11
5.21847e-11
4.75508e-11
4.57802e-11
4.51176e-11
4.27343e-11
4.01867e-11
3.77357e-11
3.53119e-11
3.29783e-11
3.06923e-11
2.84823e-11
2.63405e-11
2.42536e-11
2.2254e-11
2.02836e-11
1.84165e-11
1.65767e-11
1.56882e-11
1.47998e-11
1.39243e-11
1.30724e-11
1.22205e-11
1.13782e-11
1.05558e-11
9.73327e-12
8.92352e-12
8.12462e-12
7.3264e-12
6.54555e-12
5.76469e-12
4.9924e-12
4.22156e-12
3.4476e-12
2.66252e-12
1.85212e-12
1.43293e-12
9.87546e-13
5.15322e-13
0
)


113
(
0
1.82547e-12
3.50189e-12
5.14601e-12
6.80812e-12
8.51072e-12
1.02652e-11
1.20751e-11
1.3939e-11
1.58528e-11
1.78111e-11
1.98083e-11
2.18386e-11
2.38967e-11
2.59771e-11
2.80754e-11
3.01855e-11
3.23002e-11
3.44146e-11
3.65239e-11
3.86232e-11
4.07079e-11
4.27728e-11
4.48086e-11
4.68139e-11
4.87842e-11
5.07149e-11
5.26017e-11
5.44402e-11
5.6226e-11
5.7955e-11
5.96233e-11
6.1227e-11
6.27852e-11
6.47013e-11
6.60938e-11
6.74074e-11
6.86402e-11
6.979e-11
7.08546e-11
7.18324e-11
7.27191e-11
7.35148e-11
7.41892e-11
7.47392e-11
7.61015e-11
7.63873e-11
7.68884e-11
7.74074e-11
7.75154e-11
7.75416e-11
7.74394e-11
7.69146e-11
7.62817e-11
7.63736e-11
7.72193e-11
7.11082e-11
6.79822e-11
7.0056e-11
6.91954e-11
6.82506e-11
6.72411e-11
6.61584e-11
6.49823e-11
6.37541e-11
6.24627e-11
6.16646e-11
6.07467e-11
5.92212e-11
5.7644e-11
5.60369e-11
5.43583e-11
5.26603e-11
5.09131e-11
4.91373e-11
4.73334e-11
4.54956e-11
4.36448e-11
4.17605e-11
3.98708e-11
3.79566e-11
3.60386e-11
3.4108e-11
3.21747e-11
3.02372e-11
2.83011e-11
2.6366e-11
2.4439e-11
2.25147e-11
2.0609e-11
1.8711e-11
1.77709e-11
1.68309e-11
1.58962e-11
1.49713e-11
1.40464e-11
1.31265e-11
1.22171e-11
1.13076e-11
1.04049e-11
9.508e-12
8.61125e-12
7.71928e-12
6.8273e-12
5.92887e-12
5.02912e-12
4.10595e-12
3.1624e-12
2.1814e-12
1.67393e-12
1.14097e-12
5.86009e-13
0
)


113
(
0
1.96954e-12
3.76255e-12
5.44635e-12
7.06972e-12
8.65423e-12
1.02145e-11
1.17604e-11
1.32977e-11
1.48295e-11
1.63569e-11
1.78799e-11
1.93978e-11
2.09093e-11
2.24129e-11
2.3906e-11
2.53854e-11
2.68503e-11
2.8299e-11
2.97293e-11
3.11395e-11
3.25277e-11
3.3892e-11
3.44264e-11
3.55715e-11
3.67873e-11
3.79691e-11
3.91154e-11
4.02244e-11
4.12947e-11
4.23247e-11
4.33129e-11
4.42582e-11
4.51591e-11
4.60145e-11
4.68223e-11
4.75825e-11
4.82947e-11
4.8958e-11
4.95718e-11
5.01353e-11
5.06464e-11
5.11053e-11
5.15122e-11
5.1867e-11
5.21695e-11
5.24194e-11
5.26169e-11
5.2758e-11
5.28436e-11
5.28763e-11
5.2856e-11
5.27837e-11
5.26605e-11
5.24878e-11
5.22521e-11
5.1964e-11
5.16287e-11
5.12481e-11
5.0807e-11
5.03132e-11
4.97782e-11
4.91959e-11
4.85511e-11
4.78702e-11
4.71451e-11
4.63598e-11
4.55447e-11
4.4677e-11
4.37646e-11
4.28264e-11
4.18214e-11
4.07969e-11
3.9722e-11
3.86141e-11
3.7474e-11
3.6289e-11
3.50867e-11
3.41866e-11
3.32793e-11
3.19159e-11
3.05423e-11
2.91349e-11
2.77126e-11
2.62665e-11
2.48019e-11
2.33224e-11
2.18219e-11
2.03144e-11
1.87835e-11
1.72462e-11
1.647e-11
1.56939e-11
1.49138e-11
1.41267e-11
1.33395e-11
1.25479e-11
1.1747e-11
1.09461e-11
1.0135e-11
9.31512e-12
8.49422e-12
7.64758e-12
6.80093e-12
5.92372e-12
5.04085e-12
4.11411e-12
3.16199e-12
2.16823e-12
1.655e-12
1.12086e-12
5.70756e-13
0
)


113
(
0
1.56232e-12
3.0083e-12
4.3597e-12
5.64277e-12
6.86805e-12
8.04411e-12
9.17847e-12
1.02772e-11
1.13451e-11
1.23857e-11
1.34015e-11
1.43945e-11
1.53659e-11
1.63169e-11
1.72464e-11
1.81539e-11
1.9042e-11
1.99105e-11
2.07593e-11
2.15881e-11
2.23967e-11
2.31844e-11
2.39475e-11
2.46891e-11
2.54085e-11
2.61052e-11
2.67788e-11
2.74286e-11
2.80542e-11
2.86551e-11
2.92307e-11
2.97806e-11
3.03042e-11
3.08012e-11
3.12706e-11
3.17126e-11
3.2127e-11
3.25137e-11
3.28723e-11
3.32025e-11
3.35033e-11
3.37747e-11
3.40171e-11
3.42304e-11
3.44144e-11
3.4569e-11
3.46944e-11
3.47882e-11
3.4851e-11
3.48841e-11
3.48873e-11
3.48612e-11
3.48062e-11
3.47232e-11
3.46041e-11
3.44549e-11
3.42783e-11
3.40756e-11
3.38374e-11
3.35681e-11
3.32744e-11
3.29524e-11
3.25926e-11
3.22108e-11
3.18019e-11
3.13555e-11
3.08904e-11
3.03919e-11
2.98646e-11
2.93206e-11
2.87326e-11
2.81314e-11
2.7496e-11
2.68377e-11
2.61568e-11
2.54434e-11
2.47175e-11
2.39511e-11
2.31774e-11
2.23634e-11
2.15395e-11
2.06827e-11
1.98096e-11
1.89106e-11
1.79884e-11
1.70476e-11
1.60749e-11
1.50917e-11
1.4065e-11
1.30242e-11
1.24872e-11
1.19503e-11
1.14042e-11
1.08415e-11
1.02789e-11
9.70683e-12
9.11543e-12
8.52403e-12
7.9152e-12
7.29151e-12
6.66646e-12
6.007e-12
5.34754e-12
4.65544e-12
3.95735e-12
3.22066e-12
2.46495e-12
1.67964e-12
1.27625e-12
8.60361e-13
4.35613e-13
0
)


113
(
0
8.97669e-13
1.74835e-12
2.5548e-12
3.32506e-12
4.06123e-12
4.7653e-12
5.43959e-12
6.08644e-12
6.70799e-12
7.3061e-12
7.88234e-12
8.43805e-12
8.97431e-12
9.4921e-12
9.99097e-12
1.04708e-11
1.09345e-11
1.13823e-11
1.18149e-11
1.22325e-11
1.26353e-11
1.30237e-11
1.33957e-11
1.37539e-11
1.40983e-11
1.44292e-11
1.47466e-11
1.50506e-11
1.53412e-11
1.56185e-11
1.58825e-11
1.61332e-11
1.63708e-11
1.65951e-11
1.68059e-11
1.70036e-11
1.71882e-11
1.73597e-11
1.75182e-11
1.76636e-11
1.77956e-11
1.79143e-11
1.80199e-11
1.81124e-11
1.81919e-11
1.82583e-11
1.83118e-11
1.83513e-11
1.83771e-11
1.83898e-11
1.83893e-11
1.8376e-11
1.83499e-11
1.83114e-11
1.82569e-11
1.81892e-11
1.81092e-11
1.80175e-11
1.791e-11
1.77884e-11
1.76557e-11
1.75102e-11
1.73472e-11
1.7174e-11
1.6988e-11
1.67843e-11
1.65716e-11
1.63427e-11
1.60995e-11
1.5848e-11
1.55739e-11
1.52929e-11
1.49938e-11
1.4682e-11
1.43577e-11
1.40146e-11
1.36643e-11
1.32892e-11
1.29094e-11
1.25035e-11
1.20906e-11
1.16549e-11
1.12071e-11
1.07402e-11
1.0255e-11
9.75509e-12
9.22913e-12
8.69447e-12
8.12339e-12
7.54056e-12
7.23545e-12
6.93034e-12
6.61798e-12
6.29251e-12
5.96704e-12
5.63469e-12
5.2881e-12
4.94151e-12
4.58332e-12
4.21524e-12
3.84635e-12
3.45699e-12
3.06763e-12
2.66098e-12
2.25117e-12
1.82304e-12
1.38674e-12
9.38112e-13
7.09558e-13
4.76362e-13
2.40035e-13
0
)


113
(
0
7.95466e-14
1.57155e-13
2.32749e-13
3.06544e-13
3.78507e-13
4.48608e-13
5.1685e-13
5.83258e-13
6.47863e-13
7.10702e-13
7.71806e-13
8.31205e-13
8.8892e-13
9.44973e-13
9.99262e-13
1.05171e-12
1.10254e-12
1.15176e-12
1.19939e-12
1.24543e-12
1.28989e-12
1.33276e-12
1.37383e-12
1.41335e-12
1.45132e-12
1.48776e-12
1.52266e-12
1.55604e-12
1.58789e-12
1.61821e-12
1.64702e-12
1.67432e-12
1.70011e-12
1.72439e-12
1.74714e-12
1.76839e-12
1.78817e-12
1.80648e-12
1.82332e-12
1.8387e-12
1.85257e-12
1.86497e-12
1.87592e-12
1.88542e-12
1.89348e-12
1.9001e-12
1.9053e-12
1.90897e-12
1.91114e-12
1.91188e-12
1.91118e-12
1.90907e-12
1.90558e-12
1.90073e-12
1.89414e-12
1.8861e-12
1.87673e-12
1.86609e-12
1.85371e-12
1.83979e-12
1.82465e-12
1.80811e-12
1.78964e-12
1.77006e-12
1.74907e-12
1.72613e-12
1.70218e-12
1.67645e-12
1.64914e-12
1.62092e-12
1.5902e-12
1.55872e-12
1.52525e-12
1.49039e-12
1.45416e-12
1.4159e-12
1.37685e-12
1.33515e-12
1.29297e-12
1.24805e-12
1.20242e-12
1.15448e-12
1.10536e-12
1.05436e-12
1.00167e-12
9.47605e-13
8.91254e-13
8.3414e-13
7.74044e-13
7.13058e-13
6.8153e-13
6.50002e-13
6.17973e-13
5.85037e-13
5.521e-13
5.18731e-13
4.84466e-13
4.502e-13
4.15273e-13
3.79781e-13
3.44247e-13
3.07652e-13
2.71058e-13
2.33645e-13
1.96085e-13
1.57727e-13
1.19038e-13
7.98608e-14
6.01103e-14
4.019e-14
2.01591e-14
0
)

)


10
(

113
(
0
2.30703e-17
5.18462e-17
7.32237e-17
7.61071e-17
6.06839e-17
4.6656e-17
4.11189e-17
3.95459e-17
3.95748e-17
4.05421e-17
4.245e-17
4.5525e-17
5.02462e-17
5.77077e-17
7.10667e-17
9.35e-17
1.30308e-16
1.87e-16
2.97e-16
5.03231e-16
9.05e-16
1.71e-15
3.23615e-15
5.96692e-15
1.281e-14
2.78917e-14
6.01e-14
1.26725e-13
2.57667e-13
5.34333e-13
1.19855e-12
2.48667e-12
4.84e-12
9.12182e-12
1.68818e-11
3.01e-11
5.39091e-11
1.03e-10
2.53909e-10
6.55182e-10
1.5002e-09
2.56273e-09
3.45e-09
3.67727e-09
3.30455e-09
2.60455e-09
1.89e-09
1.32517e-09
9.01e-10
6.56385e-10
4.66333e-10
3.34923e-10
2.46429e-10
1.88571e-10
1.47286e-10
1.14886e-10
8.96e-11
7.32e-11
5.94375e-11
4.83125e-11
3.98875e-11
3.24187e-11
2.64812e-11
2.18588e-11
1.78e-11
1.51889e-11
1.27456e-11
1.09733e-11
9.45444e-12
8.31556e-12
7.47158e-12
6.82421e-12
6.40895e-12
6.09316e-12
6.014e-12
5.994e-12
6.206e-12
6.476e-12
7.03e-12
7.655e-12
8.648e-12
9.733e-12
1.14026e-11
1.32184e-11
1.5605e-11
1.8055e-11
2.125e-11
2.44611e-11
2.70722e-11
2.90588e-11
2.93235e-11
2.95882e-11
2.96e-11
2.86e-11
2.76e-11
2.66e-11
2.48667e-11
2.31333e-11
2.14e-11
1.91083e-11
1.68167e-11
1.45909e-11
1.24091e-11
1.02356e-11
8.07444e-12
6.01857e-12
4.11833e-12
2.56e-12
1.82875e-12
1.053e-12
4.4e-13
0
)


113
(
0
2.17303e-17
4.0581e-17
5.23205e-17
5.74618e-17
5.74777e-17
5.49741e-17
5.26628e-17
5.33265e-17
6.16421e-17
8.82569e-17
1.60832e-16
3.34614e-16
7.27296e-16
1.73676e-15
4.27357e-15
1.02356e-14
2.35848e-14
4.83261e-14
1.03257e-13
2.31182e-13
4.77064e-13
9.47632e-13
1.79906e-12
3.26521e-12
6.09533e-12
1.08362e-11
1.85787e-11
3.06615e-11
4.86526e-11
7.58761e-11
1.14755e-10
1.68408e-10
2.38098e-10
3.25452e-10
4.32809e-10
5.58214e-10
6.99486e-10
8.52616e-10
1.0099e-09
1.16125e-09
1.29948e-09
1.41239e-09
1.49621e-09
1.54144e-09
1.54788e-09
1.51576e-09
1.44772e-09
1.35123e-09
1.23125e-09
1.09222e-09
9.49453e-10
8.09529e-10
6.7699e-10
5.56213e-10
4.51993e-10
3.60068e-10
2.80376e-10
2.21392e-10
1.71444e-10
1.30533e-10
1.02163e-10
7.80525e-11
6.0629e-11
4.77372e-11
3.67874e-11
3.00396e-11
2.38196e-11
1.97108e-11
1.62412e-11
1.37304e-11
1.18438e-11
1.03734e-11
9.41034e-12
8.66475e-12
8.36087e-12
8.16741e-12
8.35466e-12
8.63708e-12
9.28131e-12
1.0016e-11
1.11088e-11
1.22911e-11
1.37887e-11
1.53652e-11
1.71454e-11
1.89481e-11
2.06564e-11
2.22976e-11
2.34297e-11
2.42574e-11
2.4316e-11
2.43747e-11
2.43069e-11
2.37335e-11
2.31601e-11
2.25867e-11
2.14006e-11
2.02146e-11
1.90285e-11
1.74064e-11
1.57843e-11
1.40238e-11
1.2171e-11
1.02949e-11
8.38363e-12
6.5087e-12
4.678e-12