/*--------------------------------*- C++ -*----------------------------------*\
| =========                 |                                                 |
| \\      /  F ield         | OpenFOAM: The Open Source CFD Toolbox           |
|  \\    /   O peration     | Version:  2.3.0                                 |
|   \\  /    A nd           | Web:      www.OpenFOAM.org                      |
|    \\/     M anipulation  |                                                 |
\*---------------------------------------------------------------------------*/
FoamFile
{
    version     2.0;
    format      ascii;
    class       dictionary;
    location    "constant";
    object      H2O;
}
// * * * * * * * * * * * * * * * * * * * * * * * * * * * * * * * * * * * * * //

H2O_table
13
(

10
(

113
(
0
0.00668583
0.0126795
0.018237
0.0234754
0.0285262
0.0333675
0.0379927
0.042531
0.047006
0.0513768
0.0556333
0.0598
0.0638881
0.0679553
0.0719925
0.0759411
0.0798427
0.0836232
0.0873509
0.0910319
0.094528
0.0980469
0.101689
0.10458
0.107062
0.110168
0.113019
0.115503
0.117509
0.119262
0.120512
0.121767
0.123013
0.123642
0.124
0.124
0.123462
0.122829
0.122196
0.121561
0.120851
0.119609
0.118695
0.118096
0.117514
0.116877
0.11576
0.114827
0.114286
0.113749
0.113214
0.113
0.113
0.112655
0.112147
0.111649
0.111153
0.111
0.111
0.110705
0.110229
0.109757
0.10929
0.108824
0.108361
0.107899
0.10744
0.106964
0.106055
0.105145
0.10386
0.102502
0.100922
0.0992099
0.0971933
0.0947379
0.092196
0.0892314
0.0862668
0.0829934
0.0796894
0.0762062
0.0726221
0.0689857
0.0652637
0.061522
0.0576688
0.0538156
0.0498478
0.0458766
0.043849
0.0418082
0.0397673
0.0377265
0.0355831
0.0334202
0.0312573
0.0290709
0.0268241
0.0245772
0.0223224
0.020009
0.0176955
0.0153204
0.0128667
0.0103931
0.0078684
0.00529518
0.003992
0.002642
0.00131952
0
)


113
(
0
0.0063615
0.0122629
0.0177272
0.0229573
0.0279833
0.0328243
0.0374949
0.0420579
0.0465309
0.0508693
0.0551353
0.0593445
0.0634319
0.0674701
0.0714377
0.0753011
0.0791137
0.0828057
0.0864064
0.0899259
0.0932617
0.0965145
0.0995892
0.102487
0.10528
0.107764
0.110107
0.112244
0.114085
0.115772
0.117159
0.118313
0.119311
0.119951
0.120449
0.120757
0.12082
0.120777
0.120562
0.120222
0.119813
0.119295
0.118741
0.118152
0.117539
0.116923
0.116315
0.11572
0.11515
0.114605
0.114088
0.113602
0.113136
0.112697
0.112271
0.111861
0.111456
0.111049
0.110639
0.110207
0.109761
0.109276
0.108753
0.108181
0.107528
0.106834
0.105989
0.105134
0.104022
0.10291
0.101512
0.100061
0.0983587
0.0965101
0.0944858
0.0922086
0.0898602
0.0871639
0.0844676
0.0814312
0.0783612
0.0750937
0.0717151
0.0682467
0.0646315
0.0609887
0.057189
0.0533893
0.0494353
0.0454766
0.0434376
0.0413797
0.0393218
0.0372639
0.0351367
0.0329962
0.0308558
0.0286909
0.0264633
0.0242356
0.0219973
0.0196805
0.0173636
0.0150093
0.0126075
0.0101834
0.00770229
0.0051723
0.00389395
0.00260687
0.00133087
0
)


113
(
0
0.00590568
0.0113558
0.0166413
0.0217433
0.0266979
0.0315928
0.0362132
0.0407041
0.0450933
0.0493041
0.0534313
0.0574927
0.0613897
0.0652157
0.0689396
0.0725143
0.0760174
0.0793533
0.0825753
0.0856963
0.0886094
0.0914365
0.0940847
0.096575
0.0989713
0.101116
0.103156
0.105045
0.106729
0.108309
0.10969
0.110923
0.112056
0.112966
0.113783
0.114479
0.115009
0.11546
0.115782
0.115996
0.116147
0.116176
0.116142
0.116047
0.115867
0.11566
0.115374
0.115062
0.114698
0.114306
0.113883
0.113427
0.112949
0.112433
0.1119
0.111324
0.11073
0.110087
0.109422
0.1087
0.107943
0.107127
0.106258
0.105333
0.104319
0.103266
0.102077
0.10088
0.0994858
0.0980918
0.0964993
0.094869
0.0930736
0.0911812
0.089174
0.0870013
0.0847796
0.0823183
0.0798571
0.0771264
0.0743691
0.0714312
0.0683918
0.0652513
0.0619457
0.0586034
0.0550531
0.0515028
0.0477479
0.0439866
0.0420273
0.0400432
0.0380591
0.0360749
0.0340122
0.0319344
0.0298567
0.0277438
0.0255403
0.0233369
0.0211278
0.0188775
0.0166272
0.0143466
0.0120275
0.00969659
0.00733533
0.00497819
0.0038007
0.00262352
0.00140712
0
)


113
(
0
0.00566093
0.0105533
0.0153326
0.0200366
0.0246418
0.0291206
0.0334473
0.0376612
0.0417752
0.0457169
0.0495529
0.0533058
0.0570203
0.060603
0.0639961
0.0672184
0.0703617
0.0733286
0.0761662
0.0788891
0.081443
0.0839337
0.086298
0.0885237
0.0906676
0.0926267
0.0945139
0.0962976
0.0979268
0.0994812
0.1009
0.102213
0.103456
0.104534
0.105542
0.106459
0.107245
0.10797
0.10859
0.109112
0.109573
0.109918
0.110196
0.110412
0.110514
0.110582
0.110544
0.110464
0.110292
0.110064
0.109772
0.109416
0.109018
0.108526
0.107991
0.107368
0.106709
0.105972
0.1052
0.104339
0.103424
0.102435
0.101377
0.100263
0.0990547
0.0978119
0.0964454
0.0950719
0.0935351
0.0919982
0.0903096
0.088592
0.0867487
0.0848315
0.0828372
0.0807319
0.0785893
0.0762642
0.0739392
0.0713999
0.0688394
0.0661575
0.0634074
0.0605381
0.0574747
0.0543733
0.051057
0.0477408
0.0442764
0.0408075
0.0389939
0.0371552
0.0353165
0.0334778
0.0315583
0.0296234
0.0276885
0.0257299
0.0237103
0.0216907
0.0196634
0.01758
0.0154966
0.0133995
0.0112851
0.00916744
0.00704144
0.00488227
0.00378851
0.00263001
0.00139851
0
)


113
(
0
0.00528582
0.00974176
0.0139133
0.0179755
0.0219633
0.025874
0.029683
0.0334074
0.0370545
0.0405572
0.0439676
0.0473054
0.0504735
0.0535716
0.0565689
0.0594296
0.0622272
0.0648837
0.0674514
0.0699403
0.0722807
0.0745623
0.0767239
0.0788611
0.0809816
0.0829604
0.0848357
0.086562
0.0881601
0.0896924
0.0910983
0.0924176
0.0936781
0.0947703
0.0958057
0.0967656
0.0976098
0.0983985
0.0990922
0.0996954
0.100243
0.100686
0.101063
0.101378
0.101587
0.101763
0.101824
0.101842
0.101771
0.101641
0.101446
0.101166
0.10083
0.100405
0.099937
0.0993827
0.0987929
0.0980995
0.0973596
0.0965239
0.0956295
0.0946662
0.0936392
0.0925508
0.0913623
0.0901464
0.0888332
0.0875119
0.0859937
0.0844755
0.0827741
0.0810379
0.0792232
0.0773625
0.0753895
0.0732551
0.0711098
0.068912
0.0667141
0.06435
0.0619695
0.0594696
0.0569026
0.0542641
0.0515086
0.048725
0.0457814
0.0428378
0.039716
0.0365886
0.0349597
0.0333103
0.0316608
0.0300113
0.0283001
0.0265771
0.0248541
0.0231158
0.0213379
0.01956
0.0177776
0.0159623
0.014147
0.0123148
0.010461
0.00858657
0.00665886
0.00464214
0.00360359
0.00248155
0.00129724
0
)


113
(
0
0.00465685
0.00864777
0.0122807
0.0157302
0.0190609
0.0222985
0.0254508
0.0285423
0.03158
0.0345206
0.0373973
0.0402237
0.0429276
0.0455788
0.0481543
0.0506241
0.0530448
0.0553543
0.057593
0.0597691
0.061826
0.0638357
0.0657489
0.0675802
0.0693629
0.0710225
0.0726315
0.0741676
0.0756073
0.076998
0.0782952
0.0795216
0.0806996
0.0817234
0.0827171
0.0836707
0.0845317
0.0853475
0.0860853
0.0867512
0.0873724
0.0879033
0.0887522
0.0899066
0.0905407
0.0910505
0.0913549
0.0915813
0.0916416
0.0915975
0.0914358
0.0911362
0.0907448
0.0901751
0.0895215
0.0882759
0.0867885
0.0858743
0.0852177
0.0844758
0.0836817
0.0828151
0.0818815
0.0808942
0.0798193
0.078731
0.0775957
0.0764506
0.0750714
0.0736922
0.0721942
0.0706735
0.0690621
0.0673974
0.0656725
0.063861
0.0620241
0.0600628
0.0581016
0.0560018
0.0538884
0.051677
0.0494107
0.047087
0.0446698
0.0422309
0.039669
0.037107
0.0344161
0.0317211
0.0303296
0.0289243
0.0275189
0.0261136
0.0246672
0.0232131
0.0217589
0.0202921
0.0187927
0.0172933
0.0157874
0.0142336
0.0126798
0.0110905
0.00945608
0.00778857
0.00603602
0.00418569
0.00322933
0.0022039
0.00113623
0
)


113
(
0
0.00380866
0.00718025
0.0102456
0.013117
0.0158456
0.0184555
0.0209628
0.0234059
0.0257954
0.0281018
0.0303606
0.0325819
0.0347189
0.0368209
0.0388726
0.0408547
0.0428043
0.0446802
0.0465086
0.0482947
0.0499996
0.051606
0.0529578
0.0543799
0.0558395
0.057204
0.0585286
0.0597961
0.0609865
0.0621375
0.0632129
0.0642299
0.0652078
0.0660927
0.0669372
0.067728
0.0684394
0.0691118
0.0697163
0.0702572
0.0707584
0.0711782
0.0715495
0.0718743
0.0721167
0.0723324
0.0724582
0.0725508
0.0725728
0.0725451
0.0724614
0.0723134
0.0721225
0.0718571
0.0715567
0.0711769
0.0707646
0.0702734
0.0697468
0.0691482
0.0685054
0.0678015
0.067041
0.0662353
0.0653558
0.06445
0.0634507
0.0624466
0.0613268
0.0602071
0.0589859
0.0577454
0.0564289
0.0550678
0.0536575
0.0521761
0.0506981
0.0492359
0.0477737
0.0460479
0.0442959
0.0424758
0.0406172
0.0387195
0.0367581
0.034782
0.0327225
0.030663
0.0285125
0.0263593
0.0252472
0.0241241
0.0230009
0.0218777
0.0207123
0.0195389
0.0183655
0.0171752
0.0159415
0.0147078
0.0134649
0.0121539
0.0108429
0.00948887
0.00808004
0.0066393
0.00511653
0.00351739
0.00269417
0.00182526
0.000931537
0
)


113
(
0
0.00277015
0.00530884
0.00765286
0.00985267
0.0119335
0.013905
0.0157734
0.0175754
0.0193212
0.0209812
0.0225945
0.0241709
0.0256702
0.0271399
0.0285669
0.0299385
0.0312849
0.0325754
0.033831
0.0350556
0.0362217
0.0373645
0.0384594
0.0395132
0.0405426
0.041509
0.0424489
0.0433509
0.0442013
0.0450253
0.0457983
0.0465318
0.0472386
0.0478818
0.0484969
0.049075
0.0495978
0.0500932
0.050541
0.0509438
0.0513185
0.0516353
0.0519173
0.0521661
0.0523557
0.0525259
0.0526313
0.0527126
0.0527426
0.0527366
0.0526898
0.0525962
0.0524714
0.0522923
0.0520877
0.0518251
0.051539
0.0511954
0.050826
0.0504045
0.0499509
0.0494531
0.0489145
0.0483435
0.0477195
0.0470767
0.0463675
0.0456548
0.0448605
0.0440663
0.0432012
0.0423226
0.0413914
0.0404294
0.0394336
0.038389
0.0373304
0.0362038
0.0350771
0.0338761
0.0326677
0.031407
0.0301169
0.0287954
0.0274228
0.0260374
0.0245794
0.0231215
0.0215753
0.0200264
0.0192138
0.0183891
0.0175645
0.0167398
0.0158674
0.0149859
0.0141044
0.0132045
0.0122576
0.0113108
0.010355
0.00933397
0.00831295
0.00725675
0.00615579
0.00503263
0.00385244
0.00262611
0.00199891
0.00134697
0.0006826
0
)


113
(
0
0.00154605
0.00300779
0.00438906
0.00570358
0.00695799
0.00815234
0.00928459
0.0103741
0.0114268
0.01242
0.0133794
0.0143123
0.0151884
0.0160427
0.0168656
0.0176483
0.0184129
0.0191379
0.019839
0.0205189
0.0211599
0.0217859
0.0223813
0.0229513
0.0235062
0.0240234
0.0245251
0.0250047
0.025455
0.0258904
0.0262974
0.0266828
0.0270537
0.0273902
0.0277119
0.0280139
0.0282868
0.0285453
0.028779
0.0289893
0.0291852
0.0293511
0.0294992
0.0296302
0.0297308
0.0298216
0.0298792
0.0299245
0.0299436
0.0299443
0.0299242
0.0298801
0.02982
0.0297322
0.0296312
0.0295005
0.0293577
0.0291852
0.0289994
0.0287865
0.028557
0.0283043
0.0280302
0.0277389
0.0274196
0.0270901
0.0267248
0.0263577
0.0259457
0.0255337
0.0250818
0.0246222
0.024132
0.0236238
0.023095
0.0225366
0.0219694
0.0213587
0.020748
0.0200871
0.0194213
0.0187182
0.017994
0.0172462
0.0164597
0.0156632
0.0148097
0.0139562
0.0130326
0.0121068
0.0116144
0.0111127
0.010611
0.0101092
0.00957308
0.00903035
0.00848762
0.00793301
0.00734787
0.00676272
0.0061725
0.00554502
0.00491753
0.00427247
0.00360505
0.00292786
0.00222554
0.00150495
0.00113917
0.000764352
0.000385239
0
)


113
(
0
0.000137695
0.000272069
0.000402958
0.000530686
0.000655352
0.000776728
0.000894381
0.00100927
0.00112172
0.00122992
0.0013355
0.00143902
0.00153782
0.00163467
0.00172874
0.00181903
0.00190757
0.00199222
0.0020744
0.0021544
0.00223028
0.00230453
0.00237543
0.0024435
0.00250988
0.00257197
0.00263228
0.00269005
0.00274441
0.00279704
0.00284634
0.0028931
0.00293814
0.00297914
0.00301838
0.00305528
0.00308874
0.0031205
0.00314932
0.00317537
0.0031997
0.00322049
0.00323917
0.00325583
0.00326889
0.00328078
0.00328874
0.00329525
0.00329865
0.00329987
0.00329862
0.00329452
0.00328852
0.00327921
0.00326835
0.00325392
0.00323805
0.00321862
0.00319759
0.0031733
0.003147
0.00311791
0.00308622
0.00305245
0.00301526
0.00297685
0.00293407
0.00289106
0.00284259
0.00279411
0.00274076
0.00268649
0.00262851
0.00256835
0.00250573
0.00243956
0.00237235
0.00230004
0.00222773
0.0021497
0.0020711
0.00198841
0.00190343
0.00181599
0.00172455
0.00163214
0.00153425
0.00143636
0.00133228
0.00122801
0.00117353
0.00111831
0.00106309
0.00100787
0.000950205
0.000892079
0.000833954
0.000775083
0.000714298
0.000653512
0.000592445
0.000529308
0.000466171
0.000402163
0.000337048
0.000271494
0.000204814
0.000137378
0.000103435
6.91388e-05
3.46821e-05
0
)

)


10
(

113
(
0
0.00633134
0.0120237
0.0173063
0.0223202
0.0271137
0.0317202
0.0361676
0.0404811
0.0446838
0.0487929
0.0528163
0.056761
0.0606298
0.0644193
0.0681272
0.0717449
0.0752737
0.0787092
0.0820465
0.0852783
0.0883969
0.091396
0.0942405
0.0969462
0.0995048
0.101913
0.10416
0.106237
0.108141
0.10987
0.111414
0.112769
0.113928
0.114877
0.115604
0.116109
0.116377
0.116419
0.116256
0.115932
0.115504
0.11503
0.114552
0.114097
0.113665
0.113261
0.112859
0.112467
0.11207
0.111653
0.111212
0.110737
0.110219
0.109649
0.108996
0.108244
0.107396
0.10645
0.105354
0.104105
0.102735
0.101224
0.0995339
0.0977452
0.0958374
0.0937951
0.0916948
0.0895011
0.087248
0.0849604
0.0826074
0.0802389
0.0778312
0.0754029
0.0729542
0.0704792
0.0679941
0.0654759
0.0629514
0.0603904
0.0578188
0.0552117
0.0525843
0.0499243
0.0472305
0.0445093
0.0417346
0.0389421
0.0360707
0.0331728
0.0316929
0.030213
0.0287159
0.0271875
0.0256591
0.0241137
0.0225329
0.0209522
0.0193416
0.0177057
0.0160678
0.0143775
0.0126872
0.0109517
0.00920797
0.00741614
0.00560371
0.00376212
0.00283228
0.00188996
0.000946402
0
)


113
(
0
0.00603292
0.0116294
0.0168426
0.0218206
0.0265989
0.0312021
0.0356538
0.0399748
0.044181
0.0482835
0.0522902
0.056206
0.0600333
0.0637724
0.0674163
0.0709553
0.0743973
0.0777376
0.0809711
0.084092
0.0870938
0.0899702
0.0926922
0.0952755
0.0977127
0.0999974
0.102125
0.104088
0.105882
0.107504
0.108949
0.110217
0.111308
0.112223
0.112965
0.113543
0.11397
0.114256
0.114414
0.114455
0.114396
0.11425
0.11403
0.113749
0.113418
0.113043
0.112629
0.112175
0.111682
0.11115
0.110574
0.10995
0.109272
0.108537
0.107716
0.106815
0.105835
0.104776
0.103602
0.102321
0.100954
0.0994866
0.0978853
0.0962082
0.0944383
0.0925482
0.0906017
0.0885588
0.0864431
0.0842853
0.0820331
0.0797567
0.0774192
0.0750476
0.0726423
0.0701957
0.0677333
0.0652243
0.0627069
0.0601442
0.0575698
0.0549567
0.0523225
0.0496546
0.0469527
0.0442236
0.0414431
0.0386456
0.035772
0.032873
0.0313937
0.0299145
0.0284188
0.0268936
0.0253684
0.0238272
0.0222533
0.0206793
0.0190782
0.0174539
0.0158278
0.0141541
0.0124805
0.010768
0.00904841
0.00729078
0.005507
0.00369293
0.00278056
0.00186039
0.000947041
0
)


113
(
0
0.00559131
0.010771
0.0157862
0.0206233
0.0253194
0.0299026
0.0342851
0.0385171
0.0426193
0.0465879
0.0504439
0.0541994
0.0578528
0.0614027
0.0648397
0.0681517
0.0713537
0.0744411
0.0774121
0.0802643
0.0829935
0.0855988
0.0880551
0.0903838
0.0925814
0.0946468
0.096579
0.098378
0.100043
0.101573
0.102972
0.10424
0.105376
0.106389
0.107273
0.108036
0.108685
0.109221
0.109649
0.109973
0.110191
0.110312
0.110341
0.110276
0.110128
0.109897
0.109584
0.109188
0.108709
0.108156
0.107529
0.106829
0.106058
0.105219
0.104292
0.103292
0.102225
0.101094
0.0998757
0.0985806
0.0972248
0.0957992
0.0942805
0.0927078
0.0910681
0.0893379
0.087563
0.0857091
0.0837889
0.0818302
0.0797738
0.0776891
0.0755319
0.0733283
0.0710792
0.0687667
0.0664298
0.0640184
0.0615937
0.0590974
0.0565842
0.0540143
0.051417
0.048776
0.0460959
0.0433845
0.0406185
0.0378344
0.0349821
0.0321092
0.0306486
0.0291881
0.0277124
0.026209
0.0247057
0.0231851
0.0216291
0.0200731
0.0184861
0.0168726
0.0152586
0.013628
0.0119974
0.010336
0.00866912
0.0069742
0.00527437
0.00357429
0.00272809
0.00188326
0.00101088
0
)


113
(
0
0.00535772
0.00997238
0.0144895
0.0189333
0.0232739
0.027492
0.0315818
0.0355444
0.0393831
0.0431018
0.0467032
0.0502293
0.0536974
0.0570463
0.0602237
0.0632659
0.066184
0.0689557
0.0716139
0.0741729
0.0765978
0.078916
0.0811129
0.0832155
0.085201
0.0870764
0.0888489
0.0905141
0.0920678
0.0935163
0.0948596
0.0960991
0.0972304
0.0982594
0.0991836
0.100006
0.100728
0.101352
0.101882
0.102315
0.102651
0.102894
0.103046
0.103111
0.103084
0.102974
0.102782
0.102499
0.102132
0.101685
0.101161
0.10056
0.0998838
0.0991377
0.098304
0.0973966
0.0964233
0.0953877
0.0942695
0.0930795
0.0918337
0.0905245
0.089131
0.0876891
0.0861873
0.0846048
0.0829824
0.0812892
0.079535
0.0777455
0.075866
0.0739593
0.0719821
0.0699592
0.0678912
0.0657529
0.0635874
0.0613504
0.0590985
0.0567529
0.0543919
0.0519792
0.0495249
0.0470041
0.0444184
0.0417804
0.0390586
0.0363088
0.0335405
0.0307491
0.029326
0.0279028
0.0264663
0.0250054
0.0235445
0.022072
0.0205752
0.0190784
0.0175642
0.0160353
0.0145054
0.0129523
0.0113992
0.00983691
0.00827305
0.00671012
0.00514513
0.0035655
0.00276311
0.00192123
0.00102136
0
)


113
(
0
0.00499904
0.00918842
0.0131184
0.0169466
0.0207014
0.0243815
0.0279777
0.0314812
0.0348867
0.0381916
0.0413949
0.0444969
0.0474979
0.0503989
0.0531933
0.0558765
0.0584616
0.0609494
0.0633405
0.0656353
0.0678342
0.069937
0.07193
0.0738706
0.0758258
0.0776931
0.0794066
0.080982
0.0824528
0.0838064
0.0850268
0.0861982
0.0872682
0.0882401
0.0890882
0.0898794
0.0905847
0.0911804
0.0917135
0.0921631
0.0925308
0.0928026
0.0930094
0.0931362
0.093187
0.0931618
0.0930605
0.0928845
0.0926329
0.092308
0.0919133
0.0914508
0.0909219
0.0903288
0.0896534
0.0889157
0.0881168
0.0872573
0.0863183
0.0853212
0.0842708
0.0831524
0.0819519
0.0807128
0.0794295
0.0780469
0.0766284
0.0751606
0.0736119
0.0720163
0.0703224
0.0685894
0.0667517
0.064857
0.0629061
0.0609109
0.0588985
0.0568436
0.0547775
0.0526267
0.0504551
0.048214
0.0459388
0.0436093
0.0412319
0.0388161
0.0363377
0.0338384
0.0312602
0.0286596
0.0273332
0.0260069
0.0246691
0.0233105
0.0219519
0.0205851
0.0192014
0.0178176
0.0164249
0.0150246
0.013624
0.0122142
0.0108043
0.0093855
0.0079649
0.00651946
0.0050468
0.00351767
0.00272415
0.00187872
0.000981017
0
)


113
(
0
0.00438641
0.00812492
0.0115286
0.0147602
0.017876
0.0209048
0.0238601
0.0267468
0.0295655
0.0323149
0.0349933
0.0375991
0.0401306
0.0425866
0.0449604
0.0472467
0.049455
0.0515852
0.0536373
0.0556114
0.0575075
0.0593255
0.0610542
0.0627067
0.0642834
0.0657846
0.0672107
0.0685623
0.0698398
0.0710437
0.0721748
0.0732336
0.0742178
0.0750763
0.0759188
0.0766921
0.0773977
0.0780363
0.0786089
0.0791167
0.0795585
0.0799366
0.0803818
0.0815554
0.0820204
0.0823067
0.0824908
0.0825173
0.0824324
0.0822358
0.0819289
0.0815202
0.081014
0.0804085
0.0796426
0.0787701
0.0774716
0.0758543
0.0750991
0.0742831
0.0734194
0.072501
0.0715095
0.0704757
0.0693897
0.0683415
0.0672395
0.0659631
0.0646337
0.0632737
0.0618317
0.0603649
0.0588336
0.0572585
0.0556402
0.0539588
0.052253
0.0504677
0.0486678
0.0467875
0.0448874
0.0429216
0.0409236
0.0388746
0.0367817
0.0346534
0.03247
0.0302682
0.0280012
0.0257173
0.0245555
0.0233937
0.0222237
0.0210388
0.0198539
0.0186627
0.0174582
0.0162538
0.0150387
0.0138144
0.0125892
0.0113387
0.0100881
0.00880346
0.00751238
0.00616226
0.00477131
0.00330862
0.00254643
0.00173988
0.00089596
0
)


113
(
0
0.00354955
0.00667792
0.00951879
0.0121781
0.0146986
0.01711
0.0194335
0.0216835
0.0238695
0.0259973
0.0280705
0.0300912
0.0320607
0.0339793
0.0358436
0.0376502
0.0394053
0.0411086
0.0427598
0.0443586
0.0459046
0.0473975
0.0484904
0.0497805
0.0510544
0.0522712
0.0534307
0.0545328
0.0555774
0.0565645
0.0574943
0.0583667
0.0591819
0.0599401
0.0606403
0.061284
0.0618721
0.0624048
0.0628825
0.0633054
0.0636723
0.0639843
0.0642424
0.0644473
0.0645994
0.064699
0.0647467
0.0647393
0.064678
0.0645657
0.0644025
0.0641896
0.0639282
0.0636197
0.0632513
0.0628332
0.0623701
0.061864
0.0612999
0.0606851
0.0600304
0.05933
0.058568
0.0577703
0.0569285
0.0560257
0.0550925
0.0541046
0.0530696
0.0520072
0.0508721
0.0497151
0.0485013
0.0472491
0.0459592
0.0446146
0.0432489
0.041956
0.0406508
0.0391072
0.0375486
0.0359402
0.0343079
0.0326375
0.0309345
0.0292052
0.0274347
0.0256503
0.0238143
0.0219629
0.0210191
0.0200754
0.0191222
0.0181519
0.0171816
0.0162014
0.0152007
0.0142001
0.0131793
0.0121416
0.011102
0.0100173
0.00893266
0.00779844
0.00665506
0.00544401
0.00419498
0.00288418
0.00220479
0.00149506
0.000762333
0
)


113
(
0
0.00253869
0.00485805
0.00699626
0.00900145
0.0108923
0.0126841
0.0143907
0.0160233
0.0175911
0.0191011
0.0205585
0.0219676
0.0233314
0.0246522
0.0259291
0.0271616
0.0283555
0.0295117
0.0306307
0.0317126
0.0327576
0.0337658
0.0347315
0.0356606
0.0365532
0.037409
0.0382278
0.0390096
0.039754
0.0404611
0.0411306
0.0417623
0.0423563
0.0429123
0.0434295
0.0439087
0.0443503
0.0447543
0.0451206
0.0454494
0.0457395
0.0459915
0.0462061
0.0463835
0.0465238
0.0466273
0.0466941
0.0467218
0.0467112
0.0466643
0.0465809
0.046462
0.0463083
0.0461206
0.0458899
0.0456232
0.045324
0.0449936
0.0446212
0.0442121
0.0437741
0.0433029
0.0427871
0.0422453
0.0416717
0.0410539
0.040414
0.0397348
0.0390216
0.0382887
0.0375035
0.0367027
0.0358611
0.0349921
0.0340961
0.0331609
0.0322105
0.0312111
0.0302026
0.0291445
0.0280741
0.0269628
0.0258309
0.0246663
0.0234719
0.0222536
0.020994
0.0197205
0.0183896
0.0170397
0.0163427
0.0156456
0.0149362
0.0142045
0.0134728
0.0127283
0.0119576
0.0111869
0.0103925
0.00957785
0.00876138
0.00789813
0.00703487
0.00612726
0.00521152
0.00424342
0.00324952
0.00221552
0.00168399
0.00113554
0.000575114
0
)


113
(
0
0.00138894
0.0026998
0.00393714
0.00511427
0.00623468
0.0073017
0.00831919
0.00929105
0.0102209
0.0111118
0.0119666
0.0127873
0.013576
0.0143343
0.0150615
0.0157576
0.0164273
0.0170715
0.0176908
0.018286
0.0188576
0.0194061
0.0199285
0.0204291
0.0209082
0.021366
0.0218028
0.0222189
0.0226143
0.0229893
0.0233441
0.0236787
0.0239934
0.0242882
0.0245628
0.0248178
0.0250535
0.02527
0.0254672
0.0256454
0.025804
0.0259434
0.0260639
0.0261656
0.0262486
0.026313
0.026359
0.0263852
0.0263921
0.0263806
0.0263507
0.0263027
0.0262371
0.0261541
0.0260492
0.0259258
0.0257857
0.0256295
0.0254515
0.0252544
0.0250422
0.0248125
0.0245591
0.0242919
0.0240075
0.0236991
0.0233786
0.0230363
0.0226748
0.0223023
0.0218995
0.0214874
0.0210512
0.020598
0.0201282
0.0196333
0.0191287
0.0185911
0.0180474
0.0174686
0.0168808
0.0162624
0.0156279
0.0149678
0.0142833
0.0135791
0.01284
0.0120893
0.0112896
0.0104741
0.0100479
0.00962169
0.00918571
0.00873202
0.00827834
0.00781534
0.00733307
0.00685081
0.00635281
0.0058414
0.0053289
0.00478858
0.00424826
0.00368441
0.00311627
0.00252318
0.00191894
0.00129788
0.000981568
0.000658918
0.000331992
0
)


113
(
0
0.000121123
0.000239269
0.000354324
0.000466618
0.000576101
0.000682727
0.000786504
0.000887467
0.000985668
0.00108116
0.001174
0.00126422
0.00135187
0.00143697
0.00151937
0.00159895
0.00167606
0.00175071
0.00182293
0.00189271
0.00196008
0.00202502
0.00208721
0.00214703
0.0022045
0.00225962
0.0023124
0.00236285
0.00241097
0.00245677
0.00250026
0.00254144
0.00258033
0.00261692
0.00265118
0.00268316
0.0027129
0.00274041
0.00276568
0.00278873
0.0028095
0.00282803
0.00284434
0.00285847
0.0028704
0.00288016
0.00288775
0.00289303
0.00289603
0.00289687
0.00289553
0.00289205
0.00288647
0.00287885
0.00286859
0.00285614
0.00284167
0.00282528
0.00280626
0.00278492
0.00276174
0.00273643
0.00270823
0.00267833
0.00264632
0.00261135
0.00257488
0.00253572
0.00249417
0.00245125
0.00240457
0.00235674
0.0023059
0.00225299
0.00219802
0.00213998
0.00208075
0.00201755
0.00195362
0.00188557
0.00181647
0.00174388
0.00166952
0.00159234
0.00151262
0.00143084
0.00134563
0.00125927
0.00116844
0.00107628
0.00102865
0.000981012
0.000932627
0.000882882
0.000833137
0.000782743
0.000731007
0.000679271
0.000626542
0.000572968
0.000519331
0.000464106
0.00040888
0.00035243
0.000295758
0.000237893
0.000179532
0.000120439
9.06506e-05
6.06081e-05
3.04e-05
0
)

)


10
(

113
(
0
0.00616131
0.0117077
0.0169
0.0217694
0.0264151
0.03092
0.035266
0.0394297
0.0435287
0.0475825
0.0515167
0.055325
0.0590385
0.0624231
0.0659667
0.06945
0.0727308
0.0758083
0.0788917
0.0816923
0.0845
0.0872667
0.0898615
0.0921692
0.0945
0.0967167
0.0987167
0.1005
0.102167
0.103833
0.105636
0.107333
0.1085
0.109364
0.110273
0.111182
0.112
0.112
0.112909
0.113
0.1122
0.112
0.112
0.111364
0.111
0.110545
0.11
0.109833
0.109
0.108231
0.107417
0.106231
0.104857
0.104143
0.102857
0.101314
0.0996
0.098
0.0963562
0.0946687
0.0928125
0.0909
0.0889
0.0869
0.0849
0.0829556
0.0809889
0.0789333
0.0768333
0.0746667
0.0725368
0.0704316
0.0682895
0.0661316
0.06402
0.06192
0.05978
0.05763
0.0554
0.05315
0.0509
0.04865
0.0462632
0.0438421
0.04153
0.03923
0.0367
0.03415
0.03165
0.0291059
0.0277824
0.0264588
0.0251313
0.0237875
0.0224437
0.0211
0.0197667
0.0184333
0.0171
0.0155583
0.0140167
0.0125
0.011
0.00949111
0.00796889
0.00639143
0.00481333
0.00338
0.00259875
0.001705
0.000875
0
)


113
(
0
0.0058838
0.0113351
0.0164225
0.0212799
0.0259346
0.0304127
0.0347397
0.0389346
0.0430096
0.0469737
0.0508276
0.0545785
0.0582246
0.0617489
0.0651637
0.0684712
0.0716691
0.0747682
0.0777376
0.0805749
0.0833083
0.0859237
0.0884209
0.0907951
0.0930298
0.0951432
0.0971351
0.0990036
0.100745
0.102344
0.103803
0.105117
0.106297
0.107345
0.108245
0.109
0.109614
0.11009
0.110419
0.110618
0.1107
0.110655
0.110504
0.110245
0.10989
0.109438
0.10889
0.108256
0.107533
0.106701
0.105786
0.104779
0.103693
0.102511
0.101228
0.0998732
0.0984485
0.0969136
0.0953217
0.0936727
0.091937
0.0901655
0.0883329
0.0864488
0.0845426
0.0825734
0.0805938
0.078573
0.0765357
0.0744737
0.072391
0.0702946
0.0681769
0.0660503
0.0638986
0.0617406
0.0595546
0.0573614
0.0551345
0.0528992
0.0506244
0.0483398
0.0460108
0.0436708
0.0412758
0.0388747
0.0364142
0.0339403
0.0314058
0.0288489
0.0275445
0.02624
0.0249271
0.0235804
0.0222338
0.0208872
0.0194932
0.0180992
0.0167051
0.0152645
0.0138239
0.0123606
0.0108823
0.00939217
0.00788427
0.00636379
0.00482559
0.00325006
0.00245806
0.00166609
0.000879994
0
)


113
(
0
0.00544716
0.0104841
0.0153668
0.0200708
0.0246
0.0290624
0.0333323
0.0373718
0.0413024
0.0451117
0.0488023
0.0523894
0.0558689
0.0592275
0.0624696
0.0656054
0.0686315
0.0715559
0.0743513
0.0770133
0.0795789
0.0820282
0.0843562
0.0865712
0.0886404
0.0906027
0.092447
0.0941695
0.095778
0.0972525
0.0986001
0.099824
0.100932
0.101924
0.102795
0.103551
0.104185
0.104703
0.1051
0.105385
0.10556
0.105626
0.105587
0.105438
0.105193
0.104848
0.104401
0.103868
0.103243
0.102508
0.1017
0.100799
0.0998214
0.0987784
0.0976314
0.0964244
0.095166
0.0937922
0.0923785
0.090925
0.0893745
0.0877871
0.0861383
0.0844353
0.082709
0.0809024
0.0790799
0.0771934
0.0752826
0.0733354
0.0713495
0.0693377
0.0672852
0.0652153
0.0631009
0.0609755
0.058808
0.05663
0.0544079
0.0521748
0.0498997
0.0476141
0.0452861
0.0429475
0.0405564
0.0381594
0.0357098
0.0332477
0.030727
0.0281894
0.0269007
0.0256121
0.024316
0.02299
0.021664
0.020338
0.0189588
0.0175797
0.0162006
0.0147843
0.0133681
0.011941
0.0105067
0.00906111
0.00759869
0.00612535
0.00464476
0.00316434
0.00242864
0.00168829
0.000913591
0
)


113
(
0
0.0051959
0.00967323
0.0140493
0.0183507
0.0225455
0.026614
0.0305515
0.0343608
0.0380467
0.0416156
0.0450665
0.0484415
0.051782
0.0549616
0.0579812
0.0608891
0.0636645
0.0663016
0.0688364
0.0712315
0.0735391
0.0757432
0.0778355
0.0798133
0.0816903
0.083453
0.0851068
0.0866643
0.0881354
0.089488
0.0907143
0.0918481
0.0928833
0.0938207
0.094655
0.0953849
0.0960177
0.0965536
0.0969857
0.0973134
0.0975569
0.0976971
0.097754
0.097713
0.0975855
0.0973726
0.0970701
0.0966852
0.0962199
0.095659
0.0950315
0.0943287
0.0935544
0.0926816
0.0917424
0.0907508
0.0897057
0.0885596
0.0873625
0.0861144
0.084773
0.083401
0.0819818
0.0804762
0.0789335
0.0773411
0.0757286
0.0740358
0.0723101
0.0705348
0.0687056
0.0668403
0.0649447
0.0630361
0.0610504
0.0590453
0.0569855
0.0549119
0.0527947
0.0506666
0.0484702
0.0462567
0.0439936
0.0417181
0.0393813
0.0370377
0.0345739
0.0320975
0.0296274
0.0271386
0.0258726
0.0246065
0.0233343
0.0220377
0.0207412
0.0194446
0.0181185
0.0167924
0.0154663
0.0141153
0.0127644
0.0114038
0.0100367
0.0086678
0.00729612
0.00592564
0.00455346
0.00317125
0.00245141
0.00171299
0.000910332
0
)


113
(
0
0.00482497
0.00887466
0.0126715
0.0163648
0.0199821
0.0235229
0.0269784
0.0303405
0.0336052
0.0367725
0.0398382
0.0428071
0.0456771
0.0484324
0.0510869
0.053644
0.0561037
0.0584769
0.0607397
0.0628933
0.0649626
0.0669379
0.068825
0.0706334
0.072476
0.074204
0.0758017
0.077267
0.0785988
0.0798387
0.0810204
0.0820377
0.0829716
0.0838339
0.0846063
0.0852993
0.0859112
0.0864211
0.0868463
0.0871979
0.0874761
0.0876631
0.0877771
0.087818
0.087785
0.0876765
0.0874958
0.0872484
0.0869253
0.0865239
0.086063
0.0855347
0.0849489
0.0843014
0.0835726
0.0827939
0.0819711
0.0810558
0.0800997
0.0791028
0.077992
0.0768499
0.0756641
0.0744185
0.0731473
0.0717869
0.0703988
0.0689
0.0673806
0.0658302
0.0642105
0.0625446
0.0608108
0.059048
0.0571715
0.0552665
0.0533671
0.051469
0.0495071
0.0475293
0.0454896
0.0434345
0.0413207
0.0391924
0.0369996
0.0347997
0.0325383
0.0302638
0.0279323
0.0255832
0.0243881
0.023193
0.0219928
0.0207727
0.0195525
0.0183323
0.0170936
0.0158548
0.0146161
0.0133671
0.0121181
0.0108658
0.00961143
0.00835292
0.00708828
0.00580696
0.00450243
0.00314953
0.00242421
0.00167902
0.000875141
0
)


113
(
0
0.00421275
0.00780674
0.0110828
0.0141878
0.017175
0.0200747
0.0229009
0.0256586
0.0283487
0.0309717
0.0335235
0.0360058
0.0384155
0.0407387
0.0429837
0.0451523
0.0472436
0.0492656
0.0511988
0.0530437
0.0548202
0.0565207
0.0581463
0.0596954
0.0611593
0.062551
0.0638713
0.065121
0.0663008
0.0674027
0.0684311
0.0693867
0.0702558
0.0710595
0.0718135
0.0725012
0.0731235
0.0736812
0.0741686
0.0745936
0.0749599
0.0752624
0.0755086
0.0763926
0.0770268
0.0772542
0.0773608
0.0773398
0.077217
0.0769522
0.0766117
0.0761494
0.075588
0.0749887
0.0742161
0.0730107
0.0712211
0.0705038
0.069745
0.0689446
0.0680686
0.0671596
0.0661931
0.0651686
0.0641192
0.063105
0.0620457
0.0608065
0.0595351
0.0582154
0.0568469
0.0554459
0.0539876
0.0525047
0.0509559
0.0493907
0.0477593
0.0461115
0.0443992
0.0426708
0.0408797
0.039073
0.0372073
0.0353268
0.033383
0.0314321
0.0294236
0.0274032
0.0253333
0.0232495
0.0221914
0.0211332
0.0200714
0.0189947
0.0179181
0.0168415
0.015749
0.0146564
0.0135639
0.0124545
0.0113451
0.0102211
0.00908723
0.00793737
0.00676346
0.00555444
0.00430591
0.00299301
0.00228902
0.0015694
0.000806761
0
)


113
(
0
0.00338814
0.00637505
0.00909335
0.0116344
0.0140365
0.0163307
0.0185388
0.0206754
0.0227498
0.0247685
0.0267331
0.0286479
0.0305127
0.0323198
0.0340755
0.0357813
0.0374362
0.0390456
0.0405962
0.0420877
0.0435332
0.0449272
0.0462054