/*--------------------------------*- C++ -*----------------------------------*\
| =========                 |                                                 |
| \\      /  F ield         | OpenFOAM: The Open Source CFD Toolbox           |
|  \\    /   O peration     | Version:  2.3.0                                 |
|   \\  /    A nd           | Web:      www.OpenFOAM.org                      |
|    \\/     M anipulation  |                                                 |
\*---------------------------------------------------------------------------*/
FoamFile
{
    version     2.0;
    format      ascii;
    class       dictionary;
    location    "constant";
    object      HCNN;
}
// * * * * * * * * * * * * * * * * * * * * * * * * * * * * * * * * * * * * * //

HCNN_table
13
(

10
(

113
(
0
1.58417e-40
4.1041e-40
3.42226e-39
7.9836e-39
4.74143e-39
2.1551e-38
2.65454e-37
6.92433e-36
4.32808e-35
3.95864e-34
5.45064e-33
1.42e-32
2.14703e-31
2.10975e-30
6.44329e-30
7.63603e-29
4.0528e-28
1.9187e-27
1.46184e-26
3.7238e-26
2.82884e-25
1.15499e-24
3.73956e-24
1.67707e-23
3.74826e-23
1.46613e-22
4.8323e-22
1.1472e-21
1.79945e-20
3.89597e-19
2.08053e-18
7.15127e-17
2.79585e-16
5.15883e-15
5.96652e-14
1.79956e-13
1.44718e-12
4.66975e-12
1.26318e-11
2.65268e-11
4.21584e-11
5.09783e-11
5.27653e-11
4.77952e-11
4.0348e-11
3.26732e-11
2.69749e-11
2.19584e-11
1.83908e-11
1.53439e-11
1.2884e-11
1.09062e-11
9.25e-12
7.96061e-12
6.84386e-12
6.02089e-12
5.31792e-12
4.82667e-12
4.43053e-12
4.156e-12
3.956e-12
3.8114e-12
3.71794e-12
3.63361e-12
3.56417e-12
3.4767e-12
3.32532e-12
3.16745e-12
2.85382e-12
2.54018e-12
2.10991e-12
1.65742e-12
1.2363e-12
8.33595e-13
5.13634e-13
3.12741e-13
1.36755e-13
8.23748e-14
2.79942e-14
1.49461e-14
5.98573e-15
2.05402e-15
9.5092e-16
2.24893e-16
1.14086e-16
1.86023e-17
9.95092e-18
1.29954e-18
5.68877e-19
8.31833e-20
2.01277e-20
1.38484e-20
7.56903e-21
1.28969e-21
2.18397e-22
1.39108e-22
5.98183e-23
2.49097e-24
1.6373e-24
7.8363e-25
3.09717e-26
1.90691e-26
7.16646e-27
4.00981e-28
1.73667e-28
8.31326e-30
2.28919e-30
1.09354e-31
1.68034e-32
6.84629e-33
2.00048e-33
0
)


113
(
0
2.54678e-28
1.01027e-26
2.35115e-25
2.27358e-24
1.98228e-23
1.06198e-22
8.94132e-22
5.68205e-21
1.90679e-20
9.86917e-20
4.901e-19
1.12648e-18
5.37504e-18
1.78743e-17
4.22466e-17
1.54529e-16
3.54631e-16
8.76198e-16
2.28972e-15
4.49422e-15
1.11736e-14
2.19236e-14
4.28439e-14
8.49925e-14
1.40569e-13
2.69029e-13
4.53902e-13
7.19954e-13
1.16996e-12
1.74062e-12
2.5922e-12
3.70953e-12
5.00698e-12
6.80455e-12
8.79645e-12
1.10459e-11
1.35431e-11
1.60835e-11
1.86225e-11
2.09227e-11
2.3037e-11
2.4574e-11
2.56465e-11
2.62727e-11
2.60651e-11
2.56098e-11
2.44352e-11
2.30686e-11
2.12942e-11
1.94303e-11
1.74655e-11
1.55693e-11
1.37189e-11
1.20744e-11
1.05268e-11
9.24721e-12
8.07711e-12
7.14098e-12
6.30996e-12
5.64617e-12
5.08488e-12
4.61408e-12
4.22682e-12
3.87392e-12
3.57711e-12
3.28746e-12
3.02318e-12
2.75901e-12
2.49777e-12
2.23653e-12
1.97566e-12
1.71486e-12
1.46665e-12
1.22584e-12
1.0028e-12
8.05341e-13
6.178e-13
4.78692e-13
3.39584e-13
2.52127e-13
1.69779e-13
1.14566e-13
7.46173e-14
4.38291e-14
2.79868e-14
1.37514e-14
8.62156e-15
3.49173e-15
2.08557e-15
7.94576e-16
5.342e-16
3.9544e-16
2.56681e-16
1.17922e-16
7.62596e-17
5.30924e-17
2.99252e-17
1.22023e-17
8.47883e-18
4.75539e-18
1.42059e-18
9.35768e-19
4.50946e-19
1.47387e-19
7.45254e-20
1.87478e-20
6.90074e-21
1.51289e-21
5.40713e-22
2.35659e-22
6.01983e-23
0
)


113
(
0
1.05365e-16
3.57627e-16
9.06503e-16
1.92396e-15
3.63779e-15
6.43978e-15
1.20467e-14
1.9987e-14
3.02412e-14
4.68718e-14
7.05753e-14
9.98361e-14
1.47579e-13
2.06543e-13
2.81653e-13
3.78321e-13
4.91721e-13
6.60494e-13
8.46288e-13
1.04718e-12
1.33212e-12
1.65316e-12
2.05035e-12
2.47229e-12
2.91059e-12
3.46767e-12
4.06133e-12
4.70764e-12
5.41655e-12
6.15124e-12
6.92401e-12
7.73848e-12
8.5791e-12
9.39487e-12
1.02095e-11
1.10226e-11
1.17866e-11
1.25213e-11
1.32003e-11
1.37965e-11
1.43388e-11
1.47576e-11
1.50971e-11
1.53603e-11
1.54623e-11
1.55176e-11
1.54419e-11
1.53e-11
1.50171e-11
1.46649e-11
1.42345e-11
1.37228e-11
1.31568e-11
1.2529e-11
1.18721e-11
1.12287e-11
1.05908e-11
9.88489e-12
9.14845e-12
8.4765e-12
7.84409e-12
7.21896e-12
6.60057e-12
6.00844e-12
5.45918e-12
4.92686e-12
4.45458e-12
3.9852e-12
3.5855e-12
3.1858e-12
2.84138e-12
2.5075e-12
2.2143e-12
1.94499e-12
1.69607e-12
1.47649e-12
1.26506e-12
1.09347e-12
9.21874e-13
7.86445e-13
6.54593e-13
5.4496e-13
4.47825e-13
3.61573e-13
2.93077e-13
2.27812e-13
1.80858e-13
1.33903e-13
1.03519e-13
7.36479e-14
6.31953e-14
5.41584e-14
4.51215e-14
3.60846e-14
3.04499e-14
2.54634e-14
2.04768e-14
1.60603e-14
1.311e-14
1.01597e-14
7.37427e-15
5.79824e-15
4.22221e-15
2.95638e-15
2.08537e-15
1.31762e-15
8.15432e-16
4.38865e-16
2.86724e-16
1.78095e-16
8.34048e-17
0
)


113
(
0
1.66592e-14
3.75787e-14
6.58601e-14
1.0216e-13
1.47235e-13
2.02885e-13
2.72398e-13
3.53494e-13
4.45265e-13
5.57831e-13
6.84725e-13
8.22876e-13
9.96369e-13
1.18513e-12
1.39587e-12
1.62415e-12
1.86324e-12
2.1337e-12
2.42542e-12
2.73599e-12
3.05828e-12
3.39024e-12
3.74601e-12
4.08617e-12
4.41893e-12
4.81856e-12
5.21633e-12
5.61145e-12
6.02283e-12
6.43641e-12
6.84295e-12
7.24055e-12
7.63171e-12
7.98724e-12
8.3442e-12
8.70305e-12
9.00773e-12
9.29519e-12
9.56194e-12
9.80288e-12
1.00257e-11
1.0201e-11
1.03513e-11
1.04776e-11
1.05506e-11
1.06082e-11
1.06234e-11
1.0613e-11
1.05482e-11
1.04577e-11
1.03382e-11
1.01591e-11
9.94024e-12
9.7537e-12
9.58235e-12
9.31836e-12
9.01654e-12
8.68245e-12
8.33387e-12
8.00972e-12
7.70055e-12
7.36537e-12
7.00617e-12
6.64667e-12
6.28667e-12
5.92305e-12
5.54658e-12
5.17246e-12
4.85481e-12
4.53717e-12
4.19757e-12
3.8538e-12
3.53106e-12
3.22067e-12
2.93336e-12
2.67926e-12
2.42929e-12
2.19948e-12
1.96967e-12
1.75627e-12
1.5445e-12
1.35801e-12
1.18573e-12
1.02596e-12
8.86579e-13
7.52302e-13
6.46957e-13
5.41612e-13
4.55817e-13
3.70627e-13
3.35726e-13
3.03255e-13
2.70784e-13
2.38313e-13
2.12611e-13
1.88197e-13
1.63784e-13
1.41102e-13
1.22874e-13
1.04646e-13
8.69705e-14
7.3352e-14
5.97334e-14
4.75788e-14
3.72873e-14
2.76314e-14
1.961e-14
1.24778e-14
9.16406e-15
6.11899e-15
3.10205e-15
0
)


113
(
0
8.09308e-14
1.61183e-13
2.4873e-13
3.45381e-13
4.51651e-13
5.68581e-13
6.97584e-13
8.35404e-13
9.80978e-13
1.13972e-12
1.30623e-12
1.47885e-12
1.6647e-12
1.85555e-12
2.05358e-12
2.26027e-12
2.47068e-12
2.68869e-12
2.91049e-12
3.13566e-12
3.36531e-12
3.59615e-12
3.82895e-12
4.07048e-12
4.31747e-12
4.59236e-12
4.84635e-12
5.07027e-12
5.32693e-12
5.56728e-12
5.71546e-12
5.90202e-12
6.11389e-12
6.36296e-12
6.55859e-12
6.68338e-12
6.83798e-12
6.98751e-12
7.10911e-12
7.2243e-12
7.33328e-12
7.41771e-12
7.49174e-12
7.55579e-12
7.60067e-12
7.63804e-12
7.64419e-12
7.64619e-12
7.63934e-12
7.61076e-12
7.55767e-12
7.51188e-12
7.47096e-12
7.37617e-12
7.25602e-12
7.13872e-12
7.02259e-12
6.8806e-12
6.72701e-12
6.57415e-12
6.42174e-12
6.26388e-12
6.10098e-12
5.90117e-12
5.64113e-12
5.39128e-12
5.17756e-12
4.96668e-12
4.82373e-12
4.68079e-12
4.38593e-12
4.06215e-12
3.79646e-12
3.5649e-12
3.36648e-12
3.21575e-12
3.05588e-12
2.85141e-12
2.64694e-12
2.45268e-12
2.25943e-12
2.07494e-12
1.89537e-12
1.72169e-12
1.5576e-12
1.39601e-12
1.2485e-12
1.10098e-12
9.69855e-13
8.39232e-13
7.80174e-13
7.2309e-13
6.66007e-13
6.08923e-13
5.58301e-13
5.0891e-13
4.59519e-13
4.12071e-13
3.69617e-13
3.27163e-13
2.85422e-13
2.48912e-13
2.12402e-13
1.77912e-13
1.45994e-13
1.14884e-13
8.58546e-14
5.75541e-14
4.3581e-14
2.94862e-14
1.50861e-14
0
)


113
(
0
1.3676e-13
2.62672e-13
3.85891e-13
5.10329e-13
6.37474e-13
7.6839e-13
9.03929e-13
1.04277e-12
1.18448e-12
1.33063e-12
1.47903e-12
1.62919e-12
1.7824e-12
1.93643e-12
2.09164e-12
2.24758e-12
2.40369e-12
2.55966e-12
2.715e-12
2.86976e-12
3.02251e-12
3.17419e-12
3.32347e-12
3.47009e-12
3.61511e-12
3.75515e-12
3.89278e-12
4.02691e-12
4.15568e-12
4.28156e-12
4.40157e-12
4.51663e-12
4.62733e-12
4.67932e-12
4.7487e-12
4.84112e-12
4.92541e-12
5.00557e-12
5.07843e-12
5.14421e-12
5.20553e-12
5.25749e-12
5.37899e-12
5.56731e-12
5.62112e-12
5.65e-12
5.68454e-12
5.7077e-12
5.70668e-12
5.68521e-12
5.64067e-12
5.60179e-12
5.56668e-12
5.58795e-12
5.63575e-12
5.49046e-12
5.26632e-12
5.14645e-12
5.07344e-12
4.99245e-12
4.90657e-12
4.81444e-12
4.71654e-12
4.61447e-12
4.50558e-12
4.39708e-12
4.28991e-12
4.18189e-12
4.0534e-12
3.92491e-12
3.79087e-12
3.65577e-12
3.51745e-12
3.37724e-12
3.23558e-12
3.09183e-12
2.94776e-12
2.80209e-12
2.65642e-12
2.51052e-12
2.3646e-12
2.21959e-12
2.07508e-12
1.93174e-12
1.79028e-12
1.64952e-12
1.51264e-12
1.37577e-12
1.24465e-12
1.11372e-12
1.0509e-12
9.88921e-13
9.2694e-13
8.64959e-13
8.06102e-13
7.47841e-13
6.89579e-13
6.32307e-13
5.77579e-13
5.2285e-13
4.68458e-13
4.16529e-13
3.646e-13
3.13326e-13
2.62888e-13
2.12412e-13
1.6184e-13
1.10248e-13
8.41008e-14
5.69386e-14
2.90699e-14
0
)


113
(
0
1.45729e-13
2.78658e-13
4.03363e-13
5.2346e-13
6.4062e-13
7.55771e-13
8.69656e-13
9.82934e-13
1.09575e-12
1.20796e-12
1.31978e-12
1.43127e-12
1.54181e-12
1.6518e-12
1.761e-12
1.8688e-12
1.97589e-12
2.08115e-12
2.18504e-12
2.2877e-12
2.38767e-12
2.48677e-12
2.58427e-12
2.67722e-12
2.76753e-12
2.85346e-12
2.93743e-12
3.01857e-12
3.09569e-12
3.17068e-12
3.2415e-12
3.30896e-12
3.37414e-12
3.43372e-12
3.49078e-12
3.54448e-12
3.59305e-12
3.63906e-12
3.68057e-12
3.71776e-12
3.75223e-12
3.78106e-12
3.80648e-12
3.82861e-12
3.84487e-12
3.85922e-12
3.86709e-12
3.87255e-12
3.8729e-12
3.86966e-12
3.86237e-12
3.85044e-12
3.83542e-12
3.81509e-12
3.79226e-12
3.76386e-12
3.73318e-12
3.69709e-12
3.65857e-12
3.61526e-12
3.569e-12
3.51883e-12
3.46504e-12
3.40848e-12
3.34741e-12
3.28481e-12
3.21682e-12
3.14856e-12
3.07406e-12
2.99956e-12
2.92e-12
2.83948e-12
2.75551e-12
2.66953e-12
2.58155e-12
2.4907e-12
2.40105e-12
2.31722e-12
2.2334e-12
2.1342e-12
2.03349e-12
1.93136e-12
1.82844e-12
1.72499e-12
1.62065e-12
1.51622e-12
1.41124e-12
1.30626e-12
1.20128e-12
1.09631e-12
1.04395e-12
9.91636e-13
9.39323e-13
8.87009e-13
8.34783e-13
7.82573e-13
7.30364e-13
6.78073e-13
6.25574e-13
5.73075e-13
5.20455e-13
4.66948e-13
4.13442e-13
3.59091e-13
3.03667e-13
2.47481e-13
1.89337e-13
1.29176e-13
9.84654e-14
6.64826e-14
3.37891e-14
0
)


113
(
0
1.16588e-13
2.24565e-13
3.2538e-13
4.20948e-13
5.12234e-13
5.99621e-13
6.83377e-13
7.64807e-13
8.4428e-13
9.20762e-13
9.95604e-13
1.06916e-12
1.13997e-12
1.2097e-12
1.27788e-12
1.34399e-12
1.40913e-12
1.47211e-12
1.53369e-12
1.59404e-12
1.65195e-12
1.70888e-12
1.76376e-12
1.81683e-12
1.86882e-12
1.91796e-12
1.96587e-12
2.01203e-12
2.05574e-12
2.09818e-12
2.13816e-12
2.17619e-12
2.2129e-12
2.24643e-12
2.27854e-12
2.30877e-12
2.33616e-12
2.36213e-12
2.38562e-12
2.40676e-12
2.42642e-12
2.44302e-12
2.45778e-12
2.47076e-12
2.48058e-12
2.48937e-12
2.49467e-12
2.49868e-12
2.49994e-12
2.49926e-12
2.49639e-12
2.491e-12
2.48395e-12
2.47398e-12
2.46266e-12
2.44826e-12
2.4326e-12
2.41392e-12
2.39388e-12
2.37113e-12
2.34671e-12
2.32002e-12
2.29124e-12
2.26082e-12
2.22773e-12
2.19371e-12
2.15641e-12
2.11895e-12
2.07755e-12
2.03616e-12
1.99144e-12
1.9461e-12
1.89838e-12
1.84925e-12
1.79866e-12
1.74594e-12
1.69263e-12
1.63649e-12
1.58035e-12
1.52125e-12
1.46187e-12
1.40052e-12
1.33806e-12
1.2745e-12
1.20911e-12
1.1433e-12
1.07503e-12
1.00677e-12
9.3563e-13
8.64403e-13
8.27563e-13
7.90336e-13
7.53109e-13
7.15882e-13
6.77104e-13
6.38031e-13
5.98958e-13
5.59277e-13
5.18034e-13
4.7679e-13
4.35243e-13
3.91472e-13
3.477e-13
3.02701e-13
2.56138e-13
2.08787e-13
1.59408e-13
1.08369e-13
8.23433e-14
5.542e-14
2.80431e-14
0
)


113
(
0
6.48037e-14
1.26215e-13
1.84386e-13
2.39869e-13
2.92928e-13
3.43564e-13
3.9169e-13
4.38086e-13
4.8299e-13
5.25477e-13
5.66587e-13
6.06615e-13
6.44321e-13
6.81131e-13
7.16649e-13
7.50507e-13
7.83614e-13
8.15078e-13
8.45543e-13
8.75122e-13
9.0307e-13
9.30384e-13
9.56405e-13
9.81346e-13
1.00565e-12
1.02833e-12
1.05036e-12
1.07143e-12
1.09124e-12
1.11041e-12
1.12835e-12
1.14534e-12
1.1617e-12
1.17656e-12
1.19078e-12
1.20412e-12
1.21619e-12
1.22762e-12
1.23795e-12
1.24726e-12
1.25592e-12
1.26326e-12
1.2698e-12
1.27559e-12
1.28003e-12
1.28403e-12
1.28655e-12
1.28852e-12
1.28933e-12
1.28932e-12
1.28838e-12
1.28637e-12
1.28366e-12
1.27971e-12
1.27517e-12
1.26932e-12
1.26292e-12
1.25522e-12
1.24692e-12
1.23742e-12
1.22719e-12
1.21594e-12
1.20375e-12
1.19081e-12
1.17663e-12
1.16201e-12
1.14584e-12
1.12958e-12
1.11137e-12
1.09317e-12
1.07324e-12
1.05298e-12
1.03142e-12
1.00908e-12
9.85869e-13
9.61402e-13
9.36561e-13
9.0989e-13
8.8322e-13
8.54457e-13
8.25486e-13
7.94969e-13
7.63582e-13
7.31222e-13
6.97275e-13
6.62919e-13
6.26241e-13
5.89562e-13
5.50041e-13
5.10433e-13
4.8944e-13
4.68071e-13
4.46702e-13
4.25333e-13
4.0258e-13
3.79563e-13
3.56546e-13
3.33054e-13
3.08337e-13
2.8362e-13
2.587e-13
2.32289e-13
2.05877e-13
1.78763e-13
1.50755e-13
1.22356e-13
9.29518e-14
6.28178e-14
4.75313e-14
3.18836e-14
1.60642e-14
0
)


113
(
0
5.47975e-15
1.08274e-14
1.60364e-14
2.11197e-14
2.60812e-14
3.09118e-14
3.55943e-14
4.0167e-14
4.46425e-14
4.89488e-14
5.3151e-14
5.72714e-14
6.12037e-14
6.50589e-14
6.88031e-14
7.23969e-14
7.59214e-14
7.92905e-14
8.25618e-14
8.57464e-14
8.87667e-14
9.17222e-14
9.45446e-14
9.72541e-14
9.98965e-14
1.02368e-13
1.04769e-13
1.07069e-13
1.09233e-13
1.11328e-13
1.1329e-13
1.15152e-13
1.16945e-13
1.18577e-13
1.20139e-13
1.21608e-13
1.2294e-13
1.24205e-13
1.25352e-13
1.26389e-13
1.27358e-13
1.28185e-13
1.28929e-13
1.29592e-13
1.30112e-13
1.30586e-13
1.30903e-13
1.31162e-13
1.31297e-13
1.31346e-13
1.31296e-13
1.31133e-13
1.30894e-13
1.30523e-13
1.30091e-13
1.29517e-13
1.28885e-13
1.28111e-13
1.27274e-13
1.26307e-13
1.2526e-13
1.24102e-13
1.22841e-13
1.21496e-13
1.20016e-13
1.18486e-13
1.16783e-13
1.15071e-13
1.13142e-13
1.11212e-13
1.09088e-13
1.06928e-13
1.0462e-13
1.02225e-13
9.97322e-14
9.70983e-14
9.44228e-14
9.15444e-14
8.86659e-14
8.55599e-14
8.24313e-14
7.914e-14
7.57571e-14
7.22767e-14
6.86371e-14
6.49591e-14
6.10626e-14
5.71661e-14
5.30236e-14
4.88734e-14
4.6705e-14
4.45072e-14
4.23094e-14
4.01116e-14
3.78167e-14
3.55032e-14
3.31898e-14
3.08468e-14
2.84276e-14
2.60084e-14
2.35779e-14
2.10652e-14
1.85524e-14
1.6005e-14
1.34135e-14
1.08047e-14
8.15096e-15
5.46719e-15
4.11635e-15
2.75149e-15
1.38023e-15
0
)

)


10
(

113
(
0
1.39135e-41
1.20116e-39
3.57046e-38
2.91857e-37
2.49719e-36
3.81273e-35
6.97708e-34
1.08151e-32
1.29839e-31
1.20478e-30
8.84362e-30
5.28194e-29
2.61803e-28
1.06853e-27
4.11553e-27
1.90894e-26
8.06138e-26
3.09296e-25
1.07688e-24
3.41233e-24
9.90351e-24
2.65447e-23
8.15181e-23
2.46579e-22
7.69138e-22
2.64795e-21
1.14962e-20
7.55685e-20
7.32226e-19
8.15854e-18
8.72877e-17
8.36347e-16
6.99732e-15
5.24761e-14
3.99936e-13
2.55622e-12
1.2582e-11
4.66349e-11
1.28203e-10
2.61828e-10
4.02881e-10
4.84952e-10
4.84577e-10
4.24935e-10
3.43021e-10
2.65902e-10
2.05023e-10
1.62375e-10
1.33416e-10
1.13332e-10
9.90743e-11
8.82922e-11
7.93904e-11
7.13032e-11
6.32001e-11
5.47278e-11
4.60182e-11
3.72155e-11
2.87823e-11
2.13345e-11
1.48618e-11
9.67874e-12
6.24478e-12
3.64334e-12
1.99961e-12
1.14282e-12
5.49952e-13
2.89687e-13
1.4154e-13
5.83962e-14
3.2467e-14
1.31033e-14
6.81593e-15
2.90524e-15
1.33349e-15
6.22558e-16
2.44732e-16
1.30061e-16
4.69025e-17
2.658e-17
9.87737e-18
5.22528e-18
1.96723e-18
9.26643e-19
3.43932e-19
1.29839e-19
4.81366e-20
1.05642e-20
4.92266e-21
9.58179e-22
6.41307e-22
3.24436e-22
1.0784e-22
7.26415e-23
3.74435e-23
1.23244e-23
8.04324e-24
3.76212e-24
1.46195e-24
8.4927e-25
2.56039e-25
1.55231e-25
5.44236e-26
2.4005e-26
5.93173e-27
2.49829e-27
5.07018e-28
6.16508e-29
9.40223e-30
1.74197e-30
3.08766e-32
0
)


113
(
0
2.56105e-27
8.01734e-26
1.88334e-24
1.98627e-23
1.43689e-22
1.09363e-21
7.17376e-21
3.98788e-20
2.02372e-19
9.5168e-19
3.81187e-18
1.43679e-17
4.8821e-17
1.45615e-16
4.1566e-16
1.24465e-15
3.42671e-15
8.76539e-15
2.09296e-14
4.68468e-14
9.87951e-14
1.97864e-13
4.04683e-13
7.80777e-13
1.42865e-12
2.50666e-12
4.24541e-12
6.97043e-12
1.10165e-11
1.66823e-11
2.43926e-11
3.45588e-11
4.75266e-11
6.33466e-11
8.19492e-11
1.02837e-10
1.25266e-10
1.48188e-10
1.70476e-10
1.90821e-10
2.07791e-10
2.20758e-10
2.28616e-10
2.31333e-10
2.2888e-10
2.21626e-10
2.10373e-10
1.96071e-10
1.7966e-10
1.62073e-10
1.44237e-10
1.26877e-10
1.10463e-10
9.52673e-11
8.1816e-11
6.98117e-11
5.90638e-11
4.94708e-11
4.13036e-11
3.42265e-11
2.79418e-11
2.25126e-11
1.80886e-11
1.41911e-11
1.0922e-11
8.40103e-12
6.21251e-12
4.57357e-12
3.30358e-12
2.24748e-12
1.60185e-12
1.04384e-12
6.99311e-13
4.42345e-13
2.71552e-13
1.6857e-13
9.18272e-14
5.69356e-14
2.77442e-14
1.69174e-14
7.80589e-15
4.40439e-15
1.94998e-15
1.00206e-15
4.39583e-16
1.87397e-16
8.15383e-17
2.4455e-17
1.26698e-17
3.94038e-18
2.75082e-18
1.56126e-18
7.16924e-19
4.9709e-19
2.77257e-19
1.16672e-19
7.85841e-20
4.04959e-20
1.88181e-20
1.11197e-20
3.66066e-21
2.26346e-21
8.66265e-22
4.143e-22
1.28278e-22
5.87949e-23
1.67077e-23
4.32819e-24
1.70347e-24
7.03446e-25
1.91689e-25
0
)


113
(
0
1.01108e-15
3.43951e-15
8.76997e-15
1.85231e-14
3.51487e-14
6.31989e-14
1.09716e-13
1.82799e-13
2.87788e-13
4.40727e-13
6.55396e-13
9.51887e-13
1.3531e-12
1.87707e-12
2.55816e-12
3.47725e-12
4.63789e-12
6.06147e-12
7.77275e-12
9.81292e-12
1.22445e-11
1.51378e-11
1.85958e-11
2.25066e-11
2.68383e-11
3.15917e-11
3.67851e-11
4.24693e-11
4.86859e-11
5.54009e-11
6.24959e-11
6.97054e-11
7.68773e-11
8.39197e-11
9.10593e-11
9.80384e-11
1.04618e-10
1.10782e-10
1.16366e-10
1.21327e-10
1.25468e-10
1.28724e-10
1.31214e-10
1.32709e-10
1.33297e-10
1.32886e-10
1.31467e-10
1.29404e-10
1.2646e-10
1.22534e-10
1.17817e-10
1.12561e-10
1.06925e-10
1.00968e-10
9.4655e-11
8.80583e-11
8.14279e-11
7.4875e-11
6.84803e-11
6.22009e-11
5.60621e-11
5.01271e-11
4.4605e-11
3.93535e-11
3.44485e-11
3.00859e-11
2.5995e-11
2.23904e-11
1.91599e-11
1.61464e-11
1.36679e-11
1.13441e-11
9.41818e-12
7.73118e-12
6.27926e-12
5.10067e-12
4.02786e-12
3.23579e-12
2.4903e-12
1.96938e-12
1.48954e-12
1.14641e-12
8.51466e-13
6.3316e-13
4.61329e-13
3.26913e-13
2.34634e-13
1.56401e-13
1.10936e-13
7.17514e-14
5.93437e-14
4.69359e-14
3.65364e-14
2.97697e-14
2.3003e-14
1.73018e-14
1.38031e-14
1.03045e-14
7.68788e-15
5.82269e-15
3.99076e-15
3.00053e-15
2.0103e-15
1.40566e-15
8.69864e-16
5.65242e-16
3.23334e-16
1.63793e-16
1.05208e-16
6.31823e-17
2.89483e-17
0
)


113
(
0
1.54138e-13
3.47386e-13
6.09213e-13
9.43827e-13
1.36261e-12
1.8778e-12
2.50108e-12
3.2432e-12
4.11377e-12
5.12127e-12
6.27319e-12
7.56029e-12
9.00598e-12
1.06881e-11
1.26215e-11
1.45959e-11
1.66552e-11
1.8983e-11
2.14762e-11
2.40552e-11
2.68426e-11
2.98034e-11
3.29664e-11
3.60946e-11
3.92819e-11
4.26284e-11
4.61582e-11
4.9673e-11
5.30495e-11
5.64278e-11
5.96226e-11
6.27487e-11
6.60599e-11
6.93733e-11
7.23994e-11
7.49095e-11
7.74293e-11
7.97991e-11
8.18967e-11
8.37027e-11
8.52514e-11
8.65355e-11
8.74667e-11
8.81759e-11
8.85534e-11
8.86776e-11
8.83749e-11
8.77263e-11
8.71059e-11
8.59464e-11
8.43931e-11
8.26438e-11
8.07508e-11
7.86454e-11
7.61946e-11
7.35933e-11
7.09568e-11
6.82915e-11
6.53691e-11
6.22808e-11
5.90645e-11
5.57035e-11
5.25182e-11
4.94095e-11
4.63854e-11
4.3293e-11
4.01865e-11
3.70763e-11
3.41901e-11
3.14339e-11
2.87929e-11
2.61778e-11
2.36263e-11
2.11949e-11
1.88818e-11
1.69662e-11
1.52045e-11
1.35567e-11
1.19284e-11
1.03967e-11
8.92641e-12
7.66055e-12
6.47952e-12
5.43342e-12
4.5568e-12
3.81663e-12
3.20024e-12
2.62511e-12
2.14777e-12
1.70472e-12
1.52332e-12
1.34191e-12
1.17647e-12
1.03992e-12
9.03375e-13
7.78075e-13
6.76029e-13
5.73982e-13
4.85921e-13
4.09774e-13
3.34351e-13
2.77267e-13
2.20182e-13
1.74847e-13
1.3163e-13
9.80735e-14
6.7898e-14
4.23555e-14
3.0898e-14
2.04328e-14
1.02776e-14
0
)


113
(
0
7.27437e-13
1.44487e-12
2.22776e-12
3.08999e-12
4.04029e-12
5.08217e-12
6.21517e-12
7.43667e-12
8.74309e-12
1.01305e-11
1.15947e-11
1.31317e-11
1.47373e-11
1.6407e-11
1.81401e-11
1.99329e-11
2.17723e-11
2.36523e-11
2.55666e-11
2.75089e-11
2.9472e-11
3.1449e-11
3.34313e-11
3.53774e-11
3.73812e-11
3.9583e-11
4.15391e-11
4.33212e-11
4.52639e-11
4.70107e-11
4.87815e-11
5.05801e-11
5.19651e-11
5.37226e-11
5.51412e-11
5.63609e-11
5.72539e-11
5.82765e-11
5.95294e-11
6.04505e-11
6.09886e-11
6.16132e-11
6.20642e-11
6.24134e-11
6.26382e-11
6.27374e-11
6.27251e-11
6.25503e-11
6.22899e-11
6.19138e-11
6.13005e-11
6.06062e-11
5.98388e-11
5.88271e-11
5.8058e-11
5.70487e-11
5.58194e-11
5.44143e-11
5.29676e-11
5.1667e-11
5.02489e-11
4.84994e-11
4.70639e-11
4.55574e-11
4.38643e-11
4.1565e-11
3.9372e-11
3.78089e-11
3.66242e-11
3.56588e-11
3.31864e-11
3.06136e-11
2.79105e-11
2.61388e-11
2.52839e-11
2.3803e-11
2.20798e-11
2.04734e-11
1.88858e-11
1.73842e-11
1.59068e-11
1.45099e-11
1.31565e-11
1.18725e-11
1.06534e-11
9.48667e-12
8.4086e-12
7.36009e-12
6.42621e-12
5.52578e-12
5.11448e-12
4.70318e-12
4.31013e-12
3.95012e-12
3.59011e-12
3.2453e-12
2.93191e-12
2.61853e-12
2.32746e-12
2.05538e-12
1.78465e-12
1.54786e-12
1.31108e-12
1.09848e-12
8.90241e-13
7.0245e-13
5.21118e-13
3.47722e-13
2.62657e-13
1.77422e-13
9.05605e-14
0
)


113
(
0
1.19554e-12
2.29001e-12
3.35988e-12
4.43834e-12
5.53988e-12
6.67166e-12
7.83577e-12
9.03108e-12
1.02547e-11
1.15031e-11
1.27725e-11
1.4059e-11
1.53591e-11
1.66691e-11
1.79859e-11
1.9305e-11
2.06223e-11
2.19348e-11
2.32391e-11
2.45323e-11
2.58112e-11
2.70726e-11
2.83096e-11
2.95224e-11
3.0708e-11
3.18635e-11
3.29863e-11
3.40736e-11
3.51227e-11
3.61312e-11
3.70966e-11
3.80166e-11
3.88711e-11
3.93384e-11
4.0102e-11
4.0813e-11
4.14704e-11
4.20728e-11
4.26192e-11
4.31088e-11
4.3539e-11
4.39102e-11
4.43843e-11
4.57156e-11
4.5811e-11
4.60786e-11
4.61788e-11
4.62876e-11
4.62408e-11
4.60679e-11
4.59359e-11
4.57156e-11
4.5362e-11
4.5003e-11
4.46924e-11
4.44697e-11
4.33106e-11
4.12667e-11
4.05854e-11
3.98538e-11
3.90839e-11
3.8271e-11
3.74044e-11
3.65084e-11
3.55769e-11
3.45793e-11
3.35626e-11
3.2527e-11
3.14665e-11
3.03916e-11
2.92848e-11
2.81703e-11
2.70364e-11
2.58933e-11
2.47413e-11
2.3582e-11
2.24201e-11
2.1257e-11
2.00944e-11
1.89389e-11
1.77871e-11
1.66479e-11
1.55183e-11
1.4404e-11
1.33077e-11
1.22259e-11
1.11739e-11
1.01318e-11
9.13475e-12
8.15285e-12
7.67954e-12
7.20622e-12
6.74222e-12
6.29506e-12
5.8479e-12
5.40917e-12
4.98787e-12
4.56657e-12
4.15805e-12
3.7604e-12
3.36348e-12
2.98505e-12
2.60663e-12
2.239e-12
1.87328e-12
1.51231e-12
1.14979e-12
7.82573e-13
5.95913e-13
4.03578e-13
2.05819e-13
0
)


113
(
0
1.24284e-12
2.37153e-12
3.42867e-12
4.4454e-12
5.4353e-12
6.40753e-12
7.36823e-12
8.32107e-12
9.26797e-12
1.02096e-11
1.1146e-11
1.20767e-11
1.30008e-11
1.39174e-11
1.48248e-11
1.57206e-11
1.66049e-11
1.74763e-11
1.83338e-11
1.91761e-11
2.00021e-11
2.08105e-11
2.15437e-11
2.22858e-11
2.30099e-11
2.37098e-11
2.43846e-11
2.50331e-11
2.56546e-11
2.62482e-11
2.68129e-11
2.73481e-11
2.7853e-11
2.8327e-11
2.87687e-11
2.91785e-11
2.95561e-11
2.9901e-11
3.02131e-11
3.0492e-11
3.07364e-11
3.09466e-11
3.1123e-11
3.12656e-11
3.13743e-11
3.14494e-11
3.14909e-11
3.14967e-11
3.14674e-11
3.14048e-11
3.13091e-11
3.11812e-11
3.10218e-11
3.08321e-11
3.0604e-11
3.03443e-11
3.00562e-11
2.97413e-11
2.93905e-11
2.90091e-11
2.86039e-11
2.81715e-11
2.77037e-11
2.72158e-11
2.67034e-11
2.61582e-11
2.55971e-11
2.5008e-11
2.4396e-11
2.37707e-11
2.31122e-11
2.24442e-11
2.17522e-11
2.10454e-11
2.03238e-11
1.95832e-11
1.88353e-11
1.8099e-11
1.73588e-11
1.65581e-11
1.57547e-11
1.49424e-11
1.41274e-11
1.33078e-11
1.24865e-11
1.16637e-11
1.08415e-11
1.00194e-11
9.20129e-12
8.38487e-12
7.97871e-12
7.57255e-12
7.16743e-12
6.76417e-12
6.36091e-12
5.95819e-12
5.5566e-12
5.155e-12
4.75288e-12
4.35032e-12
3.94757e-12
3.54015e-12
3.13273e-12
2.71722e-12
2.3002e-12
1.86937e-12
1.42981e-12
9.75588e-13
7.42548e-13
5.01712e-13
2.54817e-13
0
)


113
(
0
9.70588e-13
1.86694e-12
2.70267e-12
3.49436e-12
4.24859e-12
4.97071e-12
5.66542e-12
6.33655e-12
6.98708e-12
7.61924e-12
8.23466e-12
8.83455e-12
9.41977e-12
9.99092e-12
1.05475e-11
1.10889e-11
1.16169e-11
1.21317e-11
1.2633e-11
1.31207e-11
1.35947e-11
1.40546e-11
1.4498e-11
1.4927e-11
1.53412e-11
1.57403e-11
1.61241e-11
1.64923e-11
1.68446e-11
1.71807e-11
1.75004e-11
1.78034e-11
1.80895e-11
1.83585e-11
1.86097e-11
1.88435e-11
1.90599e-11
1.92586e-11
1.94397e-11
1.96029e-11
1.97478e-11
1.98744e-11
1.9983e-11
2.00737e-11
2.01464e-11
2.02012e-11
2.02381e-11
2.02559e-11
2.0255e-11
2.02364e-11
2.01999e-11
2.0146e-11
2.0075e-11
1.99875e-11
1.9879e-11
1.9753e-11
1.96113e-11
1.94545e-11
1.92774e-11
1.90828e-11
1.88744e-11
1.86503e-11
1.84051e-11
1.8148e-11
1.78759e-11
1.75836e-11
1.72813e-11
1.69612e-11
1.66259e-11
1.62819e-11
1.59152e-11
1.55418e-11
1.51512e-11
1.47491e-11
1.43359e-11
1.3907e-11
1.3472e-11
1.3018e-11
1.25607e-11
1.20848e-11
1.16046e-11
1.11099e-11
1.06082e-11
1.00953e-11
9.57287e-12
9.04264e-12
8.49952e-12
7.9521e-12
7.38727e-12
6.81676e-12
6.52489e-12
6.23301e-12
5.93742e-12
5.63512e-12
5.33281e-12
5.02662e-12
4.7124e-12
4.39817e-12
4.07655e-12
3.74861e-12
3.42008e-12
3.07661e-12
2.73314e-12
2.37522e-12
2.01465e-12
1.63674e-12
1.25019e-12
8.50163e-13
6.45237e-13
4.3456e-13
2.19794e-13
0
)


113
(
0
5.30839e-13
1.03312e-12
1.5085e-12
1.96183e-12
2.39438e-12
2.80736e-12
3.20215e-12
3.58016e-12
3.9427e-12
4.29089e-12
4.62568e-12
4.9479e-12
5.2582e-12
5.55716e-12
5.84454e-12
6.12025e-12
6.38602e-12
6.64216e-12
6.8889e-12
7.12648e-12
7.35506e-12
7.5748e-12
7.78455e-12
7.98587e-12
8.17887e-12
8.36361e-12
8.54018e-12
8.70862e-12
8.86899e-12
9.02133e-12
9.16569e-12
9.30209e-12
9.43057e-12
9.55114e-12
9.66366e-12
9.76834e-12
9.86528e-12
9.95448e-12
1.0036e-11
1.01098e-11
1.01756e-11
1.02338e-11
1.02842e-11
1.0327e-11
1.03622e-11
1.03899e-11
1.04101e-11
1.04222e-11
1.04264e-11
1.04232e-11
1.04124e-11
1.03942e-11
1.03688e-11
1.03364e-11
1.0295e-11
1.02461e-11
1.01903e-11
1.0128e-11
1.00568e-11
9.97786e-12
9.89273e-12
9.8005e-12
9.69868e-12
9.59125e-12
9.47689e-12
9.35283e-12
9.22389e-12
9.08619e-12
8.94081e-12
8.79096e-12
8.62906e-12
8.46346e-12
8.28825e-12
8.10635e-12
7.91788e-12
7.71953e-12
7.51736e-12
7.30231e-12
7.08484e-12
6.85379e-12
6.6192e-12
6.37283e-12
6.12027e-12
5.85788e-12
5.58619e-12
5.307e-12
5.01454e-12
4.71766e-12
4.4023e-12
4.08098e-12
3.91339e-12
3.74579e-12
3.57452e-12
3.39661e-12
3.2187e-12
3.03731e-12
2.8487e-12
2.6601e-12
2.46562e-12
2.26613e-12
2.06623e-12
1.85595e-12
1.64567e-12
1.42662e-12
1.20596e-12
9.76012e-13
7.41902e-13
5.01528e-13
3.79185e-13
2.54481e-13
1.28184e-13
0
)


113
(
0
4.43112e-14
8.75354e-14
1.2963e-13
1.70717e-13
2.10776e-13
2.49793e-13
2.87768e-13
3.24714e-13
3.60652e-13
3.95601e-13
4.29578e-13
4.62601e-13
4.94681e-13
5.25831e-13
5.55995e-13
5.85129e-13
6.13358e-13
6.40689e-13
6.67128e-13
6.92679e-13
7.17346e-13
7.41129e-13
7.639e-13
7.85808e-13
8.06856e-13
8.27045e-13
8.46378e-13
8.64858e-13
8.82486e-13
8.99266e-13
9.152e-13
9.3029e-13
9.44539e-13
9.5795e-13
9.70505e-13
9.8223e-13
9.93133e-13
1.00322e-12
1.01249e-12
1.02094e-12
1.02856e-12
1.03536e-12
1.04135e-12
1.04653e-12
1.05092e-12
1.05451e-12
1.0573e-12
1.05925e-12
1.06037e-12
1.06069e-12
1.06021e-12
1.05895e-12
1.05692e-12
1.05415e-12
1.05041e-12
1.04586e-12
1.04058e-12
1.03459e-12
1.02763e-12
1.01983e-12
1.01136e-12
1.0021e-12
9.91786e-13
9.80849e-13
9.69139e-13
9.56343e-13
9.42999e-13
9.28666e-13
9.13461e-13
8.9775e-13
8.80664e-13
8.63156e-13
8.44548e-13
8.25176e-13
8.05051e-13
7.83802e-13
7.62117e-13
7.38978e-13
7.15568e-13
6.90648e-13
6.65344e-13
6.38762e-13
6.11531e-13
5.83268e-13
5.5407e-13
5.24121e-13
4.92912e-13
4.61283e-13
4.28015e-13
3.94258e-13
3.76811e-13
3.59363e-13
3.4164e-13
3.23419e-13
3.05198e-13
2.86738e-13
2.67787e-13
2.48836e-13
2.29521e-13
2.09896e-13
1.90248e-13
1.70018e-13
1.49787e-13
1.29108e-13
1.08347e-13
8.71496e-14
6.57698e-14
4.41219e-14
3.32092e-14
2.22034e-14
1.11369e-14
0
)

)


10
(

113
(
0
1.47766e-37
1.28692e-35
2.44392e-34
2.32624e-33
1.84869e-32
1.86048e-31
2.83481e-30
4.23451e-29
4.66765e-28
3.74596e-27
2.20517e-26
9.7225e-26
3.33231e-25
1.10554e-24
4.08667e-24
1.38e-23
4.11154e-23
1.02575e-22
2.89325e-22
8.63231e-22
2.575e-21
7.79333e-21
2.27923e-20
6.02538e-20
2.62e-19
1.42e-18
8.95e-18
5.68e-17
2.91833e-16
1.49017e-15
1.19927e-14
8.07667e-14
4.59e-13
2.25345e-12
9.86545e-12
3.58364e-11
1.08909e-10
2.8e-10
6.23636e-10
1.09327e-09
1.598e-09
1.90364e-09
1.973e-09
1.81727e-09
1.53364e-09
1.20636e-09
9.1e-10
6.72833e-10
4.87e-10
3.66231e-10
2.64667e-10
1.87615e-10
1.31143e-10
9.18571e-11
6.28e-11
4.03286e-11
2.39e-11
1.53e-11
8.97813e-12
4.93438e-12
2.92688e-12
1.47225e-12
7.7975e-13
4.10176e-13
1.79e-13
1.09e-13
4.87667e-14
2.76e-14
1.24956e-14
6.48444e-15
3.13579e-15
1.56211e-15
7.94895e-16
3.73316e-16
2.0392e-16
9.757e-17
5.378e-17
2.563e-17
1.4052e-17
6.617e-18
3.57e-18
1.62e-18
8.21158e-19
3.10105e-19
1.6315e-19
5.665e-20
2.6435e-20
6.54083e-21
3.24917e-21
8.02412e-22
5.64765e-22
3.27118e-22
1.29856e-22
9.41375e-23
5.84187e-23
2.27e-23
1.651e-23
1.032e-23
4.13e-24
2.73125e-24
1.3325e-24
6.00636e-25
3.13364e-25
1.14911e-25
4.96889e-26
1.49386e-26
2.88983e-27
3.89e-28
1.67062e-28
1.8055e-29
6.35e-31
0
)


113
(
0
3.61607e-26
1.09367e-24
1.61261e-23
1.49995e-22
1.12255e-21
8.02308e-21
5.12952e-20
2.94209e-19
1.52836e-18
6.96868e-18
2.72312e-17
9.03153e-17
2.69396e-16
8.57817e-16
2.67159e-15
7.62072e-15
1.99574e-14
4.42432e-14
1.01799e-13
2.44752e-13
5.26383e-13
1.05997e-12
2.01197e-12
3.64267e-12
6.72507e-12
1.19392e-11
2.00948e-11
3.21958e-11
4.94525e-11
7.42975e-11
1.08558e-10
1.5369e-10
2.09755e-10
2.76727e-10
3.54812e-10
4.4187e-10
5.349e-10
6.30108e-10
7.2125e-10
8.03074e-10
8.71324e-10
9.19615e-10
9.47534e-10
9.5068e-10
9.31029e-10
8.91259e-10
8.33968e-10
7.62966e-10
6.82129e-10
5.96076e-10
5.1109e-10
4.29991e-10
3.54271e-10
2.86353e-10
2.28566e-10
1.7819e-10
1.35131e-10
1.0354e-10
7.69513e-11
5.5364e-11
4.07018e-11
2.84132e-11
1.98676e-11
1.3849e-11
8.91337e-12
6.28332e-12
3.92059e-12
2.62712e-12
1.61059e-12
1.00947e-12
6.15384e-13
3.59321e-13
2.13615e-13
1.15207e-13
6.85789e-14
3.48965e-14
1.99407e-14
9.66667e-15
5.32641e-15
2.46959e-15
1.31075e-15
5.76411e-16
2.88191e-16
1.11502e-16
5.91713e-17
2.06579e-17
1.01462e-17
3.32766e-18
1.74656e-18
5.47403e-19
3.93411e-19
2.3942e-19
1.10368e-19
8.10756e-20
5.17835e-20
2.24913e-20
1.62396e-20
9.98789e-21
3.73619e-21
2.51016e-21
1.28413e-21
6.2012e-22
3.30793e-22
1.2927e-22
5.94497e-23
2.12907e-23
6.66041e-24