/*--------------------------------*- C++ -*----------------------------------*\
| =========                 |                                                 |
| \\      /  F ield         | OpenFOAM: The Open Source CFD Toolbox           |
|  \\    /   O peration     | Version:  2.3.0                                 |
|   \\  /    A nd           | Web:      www.OpenFOAM.org                      |
|    \\/     M anipulation  |                                                 |
\*---------------------------------------------------------------------------*/
FoamFile
{
    version     2.0;
    format      ascii;
    class       dictionary;
    location    "constant";
    object      HCNO;
}
// * * * * * * * * * * * * * * * * * * * * * * * * * * * * * * * * * * * * * //

HCNO_table
13
(

10
(

113
(
0
5.20292e-20
1.22542e-19
2.0336e-19
2.89456e-19
3.81524e-19
4.78349e-19
5.7865e-19
6.81869e-19
7.87788e-19
8.99046e-19
1.01333e-18
1.13e-18
1.26836e-18
1.41876e-18
1.58646e-18
1.82123e-18
2.10671e-18
2.55793e-18
3.31301e-18
4.33755e-18
6.96439e-18
1.15854e-17
2.13756e-17
5.33444e-17
1.02367e-16
3.75721e-16
1.46981e-15
3.74497e-15
2.46277e-14
1.20032e-13
4.78282e-13
4.21738e-12
1.19497e-11
1.09434e-10
7.54209e-10
2.12446e-09
1.35575e-08
4.33304e-08
1.17887e-07
2.89548e-07
5.13584e-07
8.01783e-07
1.03065e-06
1.2025e-06
1.24942e-06
1.26385e-06
1.20799e-06
1.14751e-06
1.07724e-06
1.01135e-06
9.50385e-07
9.03812e-07
8.66833e-07
8.50513e-07
8.43914e-07
8.57817e-07
8.80094e-07
9.17667e-07
9.62111e-07
1.01177e-06
1.06463e-06
1.11673e-06
1.16813e-06
1.21231e-06
1.24472e-06
1.27101e-06
1.2756e-06
1.27873e-06
1.24691e-06
1.21509e-06
1.15679e-06
1.09344e-06
1.01864e-06
9.37104e-07
8.54589e-07
7.70661e-07
6.89265e-07
6.20239e-07
5.51212e-07
4.98899e-07
4.48238e-07
4.06212e-07
3.69044e-07
3.34924e-07
3.05776e-07
2.77216e-07
2.51986e-07
2.26757e-07
2.03722e-07
1.80756e-07
1.69663e-07
1.58694e-07
1.47724e-07
1.36755e-07
1.26175e-07
1.1567e-07
1.05164e-07
9.48886e-08
8.52051e-08
7.55215e-08
6.59299e-08
5.70119e-08
4.8094e-08
3.95352e-08
3.14333e-08
2.35951e-08
1.64346e-08
9.875e-09
6.78286e-09
4.06857e-09
1.69429e-09
0
)


113
(
0
5.99486e-20
1.33301e-19
2.17083e-19
3.27582e-19
6.11349e-19
1.63719e-18
1.0103e-17
6.23457e-17
2.08522e-16
1.07708e-15
5.31568e-15
1.22022e-14
5.88868e-14
1.98188e-13
4.70767e-13
1.72676e-12
4.00371e-12
1.00649e-11
2.69922e-11
5.35554e-11
1.37814e-10
2.75829e-10
5.48597e-10
1.11791e-09
1.87558e-09
3.68935e-09
6.38728e-09
1.03575e-08
1.74176e-08
2.66005e-08
4.08641e-08
6.07741e-08
8.4535e-08
1.2009e-07
1.61583e-07
2.10946e-07
2.71701e-07
3.37303e-07
4.10574e-07
4.87363e-07
5.65501e-07
6.41933e-07
7.1356e-07
7.80572e-07
8.34347e-07
8.83603e-07
9.167e-07
9.44254e-07
9.6003e-07
9.70192e-07
9.74022e-07
9.7549e-07
9.75383e-07
9.77014e-07
9.79463e-07
9.86782e-07
9.96089e-07
1.01029e-06
1.02668e-06
1.0454e-06
1.06554e-06
1.08452e-06
1.10243e-06
1.11689e-06
1.12573e-06
1.13135e-06
1.12553e-06
1.11901e-06
1.09565e-06
1.07229e-06
1.03469e-06
9.94369e-07
9.46199e-07
8.93417e-07
8.38081e-07
7.7907e-07
7.20179e-07
6.61877e-07
6.03576e-07
5.50752e-07
4.9847e-07
4.5156e-07
4.07673e-07
3.66857e-07
3.31051e-07
2.96186e-07
2.66649e-07
2.37112e-07
2.11571e-07
1.86155e-07
1.74423e-07
1.63e-07
1.51577e-07
1.40154e-07
1.29474e-07
1.18936e-07
1.08397e-07
9.80706e-08
8.829e-08
7.85094e-08
6.88204e-08
5.98034e-08
5.07863e-08
4.21223e-08
3.39076e-08
2.59188e-08
1.85106e-08
1.15939e-08
8.29079e-09
5.31778e-09
2.55621e-09
0
)


113
(
0
1.82168e-12
6.25177e-12
1.60366e-11
3.44257e-11
6.57008e-11
1.17034e-10
2.18043e-10
3.66756e-10
5.63241e-10
8.84676e-10
1.35024e-09
1.92906e-09
2.89458e-09
4.08292e-09
5.5919e-09
7.75448e-09
1.02892e-08
1.38429e-08
1.81615e-08
2.31582e-08
2.96704e-08
3.71361e-08
4.68359e-08
5.79025e-08
6.97981e-08
8.46375e-08
1.01045e-07
1.19711e-07
1.40757e-07
1.63125e-07
1.8822e-07
2.15485e-07
2.44193e-07
2.75726e-07
3.08285e-07
3.42206e-07
3.77964e-07
4.14342e-07
4.51518e-07
4.88991e-07
5.26576e-07
5.63994e-07
6.00847e-07
6.37157e-07
6.71926e-07
7.06162e-07
7.38452e-07
7.69743e-07
7.98914e-07
8.26294e-07
8.51655e-07
8.74734e-07
8.96292e-07
9.14843e-07
9.31979e-07
9.46426e-07
9.59773e-07
9.69688e-07
9.7806e-07
9.83418e-07
9.86927e-07
9.87771e-07
9.86154e-07
9.82207e-07
9.74458e-07
9.65376e-07
9.51569e-07
9.37512e-07
9.17424e-07
8.97337e-07
8.72565e-07
8.469e-07
8.17824e-07
7.86742e-07
7.53961e-07
7.18732e-07
6.83074e-07
6.45316e-07
6.07558e-07
5.68713e-07
5.29761e-07
4.91311e-07
4.53142e-07
4.15704e-07
3.79456e-07
3.43592e-07
3.09903e-07
2.76213e-07
2.4585e-07
2.1559e-07
2.01606e-07
1.87985e-07
1.74364e-07
1.60743e-07
1.48326e-07
1.36139e-07
1.23952e-07
1.12055e-07
1.00907e-07
8.97582e-08
7.87496e-08
6.87675e-08
5.87854e-08
4.9186e-08
4.00738e-08
3.11751e-08
2.28253e-08
1.49391e-08
1.11345e-08
7.54955e-09
3.95922e-09
0
)


113
(
0
4.30183e-10
9.80467e-10
1.73748e-09
2.72439e-09
3.96806e-09
5.52775e-09
7.51449e-09
9.86861e-09
1.2565e-08
1.59504e-08
1.98318e-08
2.4103e-08
2.95438e-08
3.53502e-08
4.16828e-08
4.9341e-08
5.75648e-08
6.69321e-08
7.70729e-08
8.78995e-08
9.97204e-08
1.1222e-07
1.26338e-07
1.4139e-07
1.56981e-07
1.73309e-07
1.90825e-07
2.10049e-07
2.29589e-07
2.49657e-07
2.71416e-07
2.93314e-07
3.1532e-07
3.38335e-07
3.61744e-07
3.85675e-07
4.09962e-07
4.3435e-07
4.58841e-07
4.83373e-07
5.07856e-07
5.31857e-07
5.55681e-07
5.79336e-07
6.01964e-07
6.24285e-07
6.45706e-07
6.66581e-07
6.86297e-07
7.04967e-07
7.22459e-07
7.38204e-07
7.52786e-07
7.65955e-07
7.7846e-07
7.88872e-07
7.98431e-07
8.04824e-07
8.09796e-07
8.13135e-07
8.15474e-07
8.15482e-07
8.13337e-07
8.09735e-07
8.03754e-07
7.96898e-07
7.8694e-07
7.76832e-07
7.63138e-07
7.49444e-07
7.32902e-07
7.15818e-07
6.96481e-07
6.7582e-07
6.53902e-07
6.30176e-07
6.06173e-07
5.80822e-07
5.5547e-07
5.2799e-07
5.003e-07
4.72154e-07
4.43752e-07
4.14866e-07
3.85191e-07
3.55518e-07
3.2586e-07
2.96201e-07
2.67646e-07
2.39124e-07
2.2528e-07
2.11567e-07
1.97854e-07
1.84141e-07
1.71003e-07
1.57974e-07
1.44945e-07
1.32127e-07
1.19853e-07
1.07579e-07
9.53993e-08
8.39168e-08
7.24342e-08
6.13073e-08
5.06331e-08
4.01576e-08
3.0193e-08
2.04611e-08
1.56476e-08
1.07484e-08
5.64243e-09
0
)


113
(
0
2.9394e-09
5.91446e-09
9.22664e-09
1.29492e-08
1.71122e-08
2.17766e-08
2.70357e-08
3.27498e-08
3.88711e-08
4.57234e-08
5.30399e-08
6.07213e-08
6.92628e-08
7.81636e-08
8.75812e-08
9.77028e-08
1.08148e-07
1.19316e-07
1.3093e-07
1.4294e-07
1.55671e-07
1.68675e-07
1.82233e-07
1.96477e-07
2.11124e-07
2.26614e-07
2.41933e-07
2.57006e-07
2.73267e-07
2.89669e-07
3.05487e-07
3.21827e-07
3.38506e-07
3.55454e-07
3.71802e-07
3.87353e-07
4.03864e-07
4.20322e-07
4.36175e-07
4.51873e-07
4.67434e-07
4.82513e-07
4.97211e-07
5.11544e-07
5.25386e-07
5.39019e-07
5.5171e-07
5.6403e-07
5.75563e-07
5.86438e-07
5.96571e-07
6.05702e-07
6.14165e-07
6.21823e-07
6.29101e-07
6.34358e-07
6.38788e-07
6.4231e-07
6.45423e-07
6.46997e-07
6.47628e-07
6.4696e-07
6.45093e-07
6.42435e-07
6.38487e-07
6.34047e-07
6.27866e-07
6.21583e-07
6.12848e-07
6.04113e-07
5.92981e-07
5.81392e-07
5.6768e-07
5.52722e-07
5.3749e-07
5.21865e-07
5.05886e-07
4.88178e-07
4.70471e-07
4.51175e-07
4.31722e-07
4.11317e-07
3.90378e-07
3.68986e-07
3.46858e-07
3.24599e-07
3.01601e-07
2.78603e-07
2.55085e-07
2.31551e-07
2.19709e-07
2.07843e-07
1.95978e-07
1.84113e-07
1.72308e-07
1.60514e-07
1.48721e-07
1.36992e-07
1.25431e-07
1.13869e-07
1.02348e-07
9.11192e-08
7.98907e-08
6.87868e-08
5.78414e-08
4.6901e-08
3.59731e-08
2.47878e-08
1.91002e-08
1.30828e-08
6.79469e-09
0
)


113
(
0
6.71004e-09
1.30015e-08
1.92779e-08
2.57262e-08
3.24237e-08
3.94414e-08
4.68551e-08
5.4567e-08
6.25429e-08
7.09703e-08
7.96631e-08
8.85643e-08
9.79157e-08
1.07438e-07
1.17207e-07
1.27281e-07
1.37489e-07
1.4798e-07
1.58627e-07
1.69413e-07
1.80423e-07
1.91509e-07
2.02741e-07
2.14068e-07
2.2545e-07
2.36925e-07
2.48417e-07
2.59934e-07
2.71442e-07
2.82934e-07
2.94374e-07
3.05741e-07
3.1703e-07
3.26775e-07
3.37007e-07
3.47885e-07
3.58527e-07
3.69039e-07
3.79311e-07
3.89321e-07
3.99163e-07
4.08625e-07
4.2037e-07
4.3431e-07
4.44299e-07
4.5349e-07
4.62312e-07
4.70556e-07
4.77574e-07
4.83805e-07
4.89149e-07
4.93663e-07
4.97625e-07
5.01335e-07
5.04927e-07
5.01902e-07
4.96173e-07
4.95011e-07
4.95899e-07
4.95956e-07
4.95503e-07
4.94321e-07
4.92464e-07
4.90054e-07
4.86742e-07
4.83303e-07
4.79415e-07
4.75424e-07
4.68976e-07
4.62527e-07
4.54833e-07
4.46902e-07
4.38042e-07
4.28635e-07
4.18633e-07
4.07774e-07
3.96673e-07
3.84395e-07
3.72118e-07
3.58603e-07
3.44965e-07
3.30514e-07
3.15605e-07
3.00259e-07
2.842e-07
2.67993e-07
2.50945e-07
2.33896e-07
2.16079e-07
1.98238e-07
1.89102e-07
1.79898e-07
1.70693e-07
1.61489e-07
1.52134e-07
1.4275e-07
1.33366e-07
1.23947e-07
1.14438e-07
1.0493e-07
9.5402e-08
8.57318e-08
7.60616e-08
6.62527e-08
5.6267e-08
4.61283e-08
3.55956e-08
2.45722e-08
1.89028e-08
1.28735e-08
6.62005e-09
0
)


113
(
0
9.16842e-09
1.76473e-08
2.57213e-08
3.36048e-08
4.13999e-08
4.91735e-08
5.69899e-08
6.48619e-08
7.27887e-08
8.08285e-08
8.89395e-08
9.71064e-08
1.05392e-07
1.13718e-07
1.22103e-07
1.30549e-07
1.39018e-07
1.47527e-07
1.56047e-07
1.64576e-07
1.73097e-07
1.81279e-07
1.885e-07
1.96332e-07
2.04506e-07
2.12553e-07
2.20535e-07
2.28423e-07
2.36162e-07
2.43818e-07
2.51305e-07
2.58643e-07
2.6588e-07
2.72854e-07
2.797e-07
2.86378e-07
2.92783e-07
2.99046e-07
3.05056e-07
3.10811e-07
3.16403e-07
3.21643e-07
3.26662e-07
3.31466e-07
3.35867e-07
3.40135e-07
3.43936e-07
3.47556e-07
3.50788e-07
3.53734e-07
3.56357e-07
3.58591e-07
3.60565e-07
3.62068e-07
3.63349e-07
3.64107e-07
3.64651e-07
3.64656e-07
3.64419e-07
3.63674e-07
3.62618e-07
3.61117e-07
3.59207e-07
3.5696e-07
3.54164e-07
3.51169e-07
3.47466e-07
3.43727e-07
3.39098e-07
3.34469e-07
3.29053e-07
3.23488e-07
3.17329e-07
3.10823e-07
3.03932e-07
2.96486e-07
2.89069e-07
2.81787e-07
2.74505e-07
2.65191e-07
2.55677e-07
2.45634e-07
2.35294e-07
2.24658e-07
2.13541e-07
2.02316e-07
1.90481e-07
1.78645e-07
1.66172e-07
1.5368e-07
1.47199e-07
1.40645e-07
1.3409e-07
1.27536e-07
1.2072e-07
1.13854e-07
1.06988e-07
1.00023e-07
9.28034e-08
8.55835e-08
7.83108e-08
7.06506e-08
6.29904e-08
5.50877e-08
4.68765e-08
3.84862e-08
2.96351e-08
2.0355e-08
1.5582e-08
1.05521e-08
5.38251e-09
0
)


113
(
0
8.87046e-09
1.71602e-08
2.4977e-08
3.24561e-08
3.96666e-08
4.66402e-08
5.34031e-08
6.00367e-08
6.65634e-08
7.29349e-08
7.92254e-08
8.54522e-08
9.15487e-08
9.75947e-08
1.03568e-07
1.09444e-07
1.15274e-07
1.21e-07
1.26657e-07
1.32252e-07
1.37723e-07
1.4314e-07
1.48448e-07
1.53655e-07
1.58801e-07
1.63781e-07
1.68687e-07
1.73487e-07
1.78134e-07
1.827e-07
1.87107e-07
1.91383e-07
1.95572e-07
1.99541e-07
2.03409e-07
2.07144e-07
2.10671e-07
2.14092e-07
2.17328e-07
2.20383e-07
2.23322e-07
2.26019e-07
2.28566e-07
2.30969e-07
2.33108e-07
2.35159e-07
2.36911e-07
2.38548e-07
2.39942e-07
2.4116e-07
2.42177e-07
2.42959e-07
2.43584e-07
2.43927e-07
2.44139e-07
2.44042e-07
2.4382e-07
2.43285e-07
2.4261e-07
2.41644e-07
2.40498e-07
2.39101e-07
2.37471e-07
2.35652e-07
2.33525e-07
2.31286e-07
2.28652e-07
2.25998e-07
2.2285e-07
2.19703e-07
2.1612e-07
2.12455e-07
2.08462e-07
2.04277e-07
1.99878e-07
1.95172e-07
1.90377e-07
1.85148e-07
1.7992e-07
1.74214e-07
1.68461e-07
1.62371e-07
1.56093e-07
1.49613e-07
1.42805e-07
1.35916e-07
1.28568e-07
1.21219e-07
1.13321e-07
1.05406e-07
1.01217e-07
9.69551e-08
9.26929e-08
8.84307e-08
8.38861e-08
7.92877e-08
7.46893e-08
6.99853e-08
6.50099e-08
6.00345e-08
5.50088e-08
4.9614e-08
4.42193e-08
3.86283e-08
3.27876e-08
2.68243e-08
2.05457e-08
1.40138e-08
1.06707e-08
7.19228e-09
3.64587e-09
0
)


113
(
0
5.81973e-09
1.13596e-08
1.66329e-08
2.16856e-08
2.654e-08
3.11966e-08
3.56489e-08
3.99609e-08
4.41518e-08
4.81471e-08
5.20313e-08
5.58279e-08
5.94373e-08
6.29742e-08
6.64069e-08
6.97054e-08
7.29431e-08
7.60475e-08
7.90705e-08
8.20214e-08
8.48388e-08
8.7604e-08
9.02626e-08
9.28315e-08
9.53472e-08
9.77277e-08
1.00052e-07
1.02297e-07
1.04433e-07
1.06514e-07
1.08489e-07
1.10383e-07
1.12221e-07
1.13927e-07
1.15574e-07
1.17145e-07
1.18601e-07
1.2e-07
1.21299e-07
1.22503e-07
1.23647e-07
1.24668e-07
1.25615e-07
1.2649e-07
1.27237e-07
1.27942e-07
1.28504e-07
1.29013e-07
1.29408e-07
1.29721e-07
1.29943e-07
1.30058e-07
1.30101e-07
1.30019e-07
1.29877e-07
1.29599e-07
1.29265e-07
1.28793e-07
1.28259e-07
1.27598e-07
1.26859e-07
1.26009e-07
1.25057e-07
1.24022e-07
1.22853e-07
1.21633e-07
1.20239e-07
1.18836e-07
1.17213e-07
1.15589e-07
1.13766e-07
1.11905e-07
1.09891e-07
1.07786e-07
1.05577e-07
1.03219e-07
1.00816e-07
9.8191e-08
9.55664e-08
9.26856e-08
8.97795e-08
8.66818e-08
8.34763e-08
8.01492e-08
7.66239e-08
7.30469e-08
6.91777e-08
6.53084e-08
6.10799e-08
5.68403e-08
5.45699e-08
5.2252e-08
4.9934e-08
4.76161e-08
4.51229e-08
4.25964e-08
4.00698e-08
3.74831e-08
3.47417e-08
3.20003e-08
2.92332e-08
2.62781e-08
2.33229e-08
2.02794e-08
1.71234e-08
1.39183e-08
1.05871e-08
7.16443e-09
5.4256e-09
3.64158e-09
1.83609e-09
0
)


113
(
0
5.6478e-10
1.11614e-09
1.65341e-09
2.1779e-09
2.69001e-09
3.1888e-09
3.67251e-09
4.14505e-09
4.60769e-09
5.05308e-09
5.48786e-09
5.9143e-09
6.32156e-09
6.72094e-09
7.10898e-09
7.48167e-09
7.84726e-09
8.19698e-09
8.53669e-09
8.86752e-09
9.18154e-09
9.48891e-09
9.78266e-09
1.00648e-08
1.03401e-08
1.05978e-08
1.08483e-08
1.10884e-08
1.13146e-08
1.15336e-08
1.17391e-08
1.19341e-08
1.21221e-08
1.22935e-08
1.24577e-08
1.26122e-08
1.27527e-08
1.28861e-08
1.30075e-08
1.31175e-08
1.32204e-08
1.33087e-08
1.33883e-08
1.34595e-08
1.3516e-08
1.35676e-08
1.3603e-08
1.36323e-08
1.36489e-08
1.36563e-08
1.36536e-08
1.36391e-08
1.36167e-08
1.35806e-08
1.3538e-08
1.34807e-08
1.34173e-08
1.33392e-08
1.32544e-08
1.31561e-08
1.30494e-08
1.2931e-08
1.28019e-08
1.26641e-08
1.2512e-08
1.23548e-08
1.21794e-08
1.2003e-08
1.18038e-08
1.16046e-08
1.13851e-08
1.11616e-08
1.09226e-08
1.06745e-08
1.04161e-08
1.01428e-08
9.86516e-09
9.5661e-09
9.26703e-09
8.94395e-09
8.61849e-09
8.27584e-09
7.92351e-09
7.56087e-09
7.1814e-09
6.79784e-09
6.39117e-09
5.9845e-09
5.55176e-09
5.1182e-09
4.89153e-09
4.66174e-09
4.43195e-09
4.20215e-09
3.96205e-09
3.71999e-09
3.47793e-09
3.23272e-09
2.97942e-09
2.72612e-09
2.47162e-09
2.20838e-09
1.94514e-09
1.67821e-09
1.4066e-09
1.13314e-09
8.54903e-10
5.73471e-10
4.31801e-10
2.8864e-10
1.44797e-10
0
)

)


10
(

113
(
0
3.67443e-18
8.79315e-18
1.46624e-17
2.10177e-17
2.77647e-17
3.48408e-17
4.22047e-17
4.98596e-17
5.78766e-17
6.64289e-17
7.58445e-17
8.66975e-17
9.9911e-17
1.16887e-16
1.40573e-16
1.77316e-16
2.35168e-16
3.30289e-16
4.93218e-16
7.83245e-16
1.31711e-15
2.32568e-15
4.72492e-15
1.0387e-14
2.468e-14
6.31642e-14
1.73457e-13
5.08846e-13
1.58472e-12
5.19827e-12
1.78146e-11
6.33455e-11
2.3066e-10
8.54803e-10
3.3229e-09
1.24305e-08
4.18746e-08
1.21972e-07
2.97429e-07
5.98717e-07
1.00024e-06
1.41507e-06
1.7691e-06
2.03908e-06
2.24394e-06
2.41833e-06
2.59352e-06
2.7906e-06
3.01525e-06
3.26088e-06
3.51776e-06
3.77438e-06
4.01975e-06
4.24426e-06
4.4264e-06
4.56209e-06
4.6511e-06
4.69301e-06
4.66964e-06
4.59357e-06
4.48101e-06
4.33073e-06
4.14871e-06
3.95698e-06
3.75665e-06
3.55984e-06
3.36753e-06
3.18616e-06
3.0164e-06
2.85337e-06
2.70698e-06
2.56474e-06
2.4329e-06
2.30644e-06
2.1853e-06
2.06977e-06
1.95642e-06
1.84831e-06
1.74105e-06
1.6378e-06
1.53536e-06
1.43563e-06
1.33706e-06
1.24034e-06
1.14512e-06
1.0511e-06
9.59072e-07
8.67702e-07
7.79162e-07
6.91556e-07
6.48846e-07
6.06135e-07
5.64039e-07
5.23052e-07
4.82065e-07
4.41703e-07
4.02633e-07
3.63562e-07
3.2565e-07
2.88723e-07
2.51889e-07
2.17383e-07
1.82877e-07
1.50602e-07
1.18737e-07
8.96481e-08
6.20639e-08
3.69759e-08
2.543e-08
1.52363e-08
6.36535e-09
0
)


113
(
0
4.279e-18
9.58489e-18
1.55571e-17
2.21186e-17
2.96872e-17
4.12001e-17
7.31394e-17
2.03894e-16
7.76066e-16
3.24259e-15
1.25612e-14
4.56734e-14
1.49844e-13
4.35495e-13
1.2197e-12
3.60281e-12
9.82181e-12
2.49124e-11
5.91048e-11
1.31809e-10
2.77694e-10
5.5684e-10
1.14496e-09
2.23311e-09
4.15125e-09
7.40652e-09
1.27419e-08
2.12264e-08
3.41908e-08
5.31904e-08
8.02244e-08
1.17576e-07
1.67767e-07
2.33176e-07
3.16431e-07
4.18813e-07
5.41196e-07
6.83605e-07
8.45405e-07
1.02498e-06
1.22018e-06
1.42873e-06
1.6463e-06
1.87006e-06
2.09683e-06
2.3235e-06
2.54757e-06
2.76674e-06
2.97763e-06
3.17807e-06
3.36558e-06
3.53803e-06
3.69346e-06
3.83021e-06
3.9397e-06
4.02382e-06
4.0837e-06
4.11968e-06
4.12279e-06
4.09793e-06
4.05206e-06
3.98292e-06
3.88726e-06
3.77897e-06
3.65613e-06
3.51979e-06
3.37877e-06
3.2316e-06
3.08348e-06
2.9348e-06
2.78965e-06
2.64639e-06
2.50832e-06
2.37446e-06
2.24474e-06
2.12104e-06
1.99965e-06
1.88506e-06
1.77162e-06
1.66396e-06
1.55745e-06
1.45479e-06
1.35372e-06
1.25518e-06
1.15857e-06
1.06353e-06
9.70891e-07
8.7905e-07
7.90314e-07
7.02555e-07
6.59815e-07
6.17076e-07
5.74957e-07
5.3396e-07
4.92963e-07
4.52587e-07
4.13496e-07
3.74405e-07
3.36445e-07
2.99447e-07
2.62536e-07
2.27828e-07
1.9312e-07
1.60507e-07
1.28277e-07
9.86096e-08
7.0141e-08
4.37209e-08
3.13562e-08
2.00235e-08
9.61285e-09
0
)


113
(
0
3.69484e-12
1.27334e-11
3.29521e-11
7.05671e-11
1.36983e-10
2.49837e-10
4.35327e-10
7.31508e-10
1.18046e-09
1.84829e-09
2.80307e-09
4.14362e-09
5.99924e-09
8.50666e-09
1.18674e-08
1.64675e-08
2.24352e-08
3.00265e-08
3.95338e-08
5.12956e-08
6.57095e-08
8.32668e-08
1.0511e-07
1.31113e-07
1.61623e-07
1.97091e-07
2.3804e-07
2.84978e-07
3.3842e-07
3.98861e-07
4.66478e-07
5.41427e-07
6.2367e-07
7.12985e-07
8.09851e-07
9.13934e-07
1.02443e-06
1.14132e-06
1.26345e-06
1.39068e-06
1.52193e-06
1.65574e-06
1.79234e-06
1.92902e-06
2.06595e-06
2.20088e-06
2.33286e-06
2.46141e-06
2.58425e-06
2.70061e-06
2.80911e-06
2.90916e-06
3.00019e-06
3.08161e-06
3.14985e-06
3.20614e-06
3.25137e-06
3.28587e-06
3.30562e-06
3.3122e-06
3.30847e-06
3.29295e-06
3.26234e-06
3.22342e-06
3.17441e-06
3.11288e-06
3.04558e-06
2.96851e-06
2.88437e-06
2.79614e-06
2.69928e-06
2.60044e-06
2.49671e-06
2.39085e-06
2.2829e-06
2.17341e-06
2.06332e-06
1.95318e-06
1.84315e-06
1.73457e-06
1.62659e-06
1.52055e-06
1.41574e-06
1.31289e-06
1.21205e-06
1.11284e-06
1.01655e-06
9.21238e-07
8.29826e-07
7.39668e-07
6.96053e-07
6.52437e-07
6.09475e-07
5.67695e-07
5.25915e-07
4.8469e-07
4.44613e-07
4.04535e-07
3.65378e-07
3.27006e-07
2.88726e-07
2.52766e-07
2.16806e-07
1.82518e-07
1.48536e-07
1.16457e-07
8.53763e-08
5.5921e-08
4.18184e-08
2.8359e-08
1.49186e-08
0
)


113
(
0
1.04373e-09
2.39264e-09
4.27346e-09
6.73759e-09
9.90038e-09
1.38935e-08
1.88539e-08
2.49214e-08
3.22357e-08
4.09367e-08
5.11652e-08
6.30799e-08
7.68676e-08
9.27111e-08
1.10878e-07
1.31534e-07
1.54469e-07
1.80011e-07
2.08367e-07
2.39585e-07
2.7367e-07
3.10983e-07
3.51874e-07
3.95933e-07
4.43125e-07
4.93574e-07
5.47592e-07
6.0489e-07
6.65072e-07
7.28381e-07
7.94323e-07
8.62977e-07
9.34996e-07
1.00916e-06
1.0859e-06
1.16404e-06
1.24356e-06
1.32462e-06
1.40634e-06
1.48849e-06
1.57059e-06
1.65261e-06
1.73356e-06
1.81408e-06
1.89219e-06
1.96894e-06
2.04302e-06
2.11378e-06
2.18175e-06
2.24596e-06
2.30578e-06
2.36129e-06
2.41245e-06
2.45893e-06
2.49891e-06
2.53318e-06
2.56231e-06
2.58645e-06
2.60333e-06
2.61354e-06
2.61838e-06
2.61694e-06
2.60763e-06
2.59376e-06
2.57421e-06
2.5468e-06
2.5155e-06
2.47731e-06
2.43361e-06
2.38673e-06
2.33155e-06
2.27405e-06
2.2106e-06
2.14367e-06
2.07331e-06
1.9988e-06
1.92269e-06
1.84246e-06
1.76147e-06
1.6763e-06
1.59062e-06
1.50327e-06
1.41501e-06
1.32528e-06
1.23474e-06
1.14357e-06
1.05213e-06
9.60609e-07
8.7169e-07
7.83298e-07
7.39708e-07
6.96118e-07
6.52921e-07
6.10435e-07
5.67948e-07
5.25879e-07
4.84673e-07
4.43467e-07
4.03023e-07
3.6323e-07
3.23495e-07
2.85248e-07
2.47e-07
2.10191e-07
1.73645e-07
1.38784e-07
1.04597e-07
7.11871e-08
5.45947e-08
3.76251e-08
1.98075e-08
0
)


113
(
0
8.31538e-09
1.67598e-08
2.62422e-08
3.69439e-08
4.90316e-08
6.26189e-08
7.77726e-08
9.45318e-08
1.12921e-07
1.32957e-07
1.54657e-07
1.78031e-07
2.03093e-07
2.29852e-07
2.5844e-07
2.88956e-07
3.21179e-07
3.55091e-07
3.90674e-07
4.27905e-07
4.66752e-07
5.07181e-07
5.49362e-07
5.93465e-07
6.39711e-07
6.87494e-07
7.35826e-07
7.84965e-07
8.35329e-07
8.85994e-07
9.37485e-07
9.89914e-07
1.04196e-06
1.09479e-06
1.14757e-06
1.20044e-06
1.25283e-06
1.30445e-06
1.35667e-06
1.40855e-06
1.4587e-06
1.50825e-06
1.55636e-06
1.60335e-06
1.64907e-06
1.69307e-06
1.73522e-06
1.77524e-06
1.81312e-06
1.84902e-06
1.88235e-06
1.91312e-06
1.94131e-06
1.96672e-06
1.98906e-06
2.00841e-06
2.02471e-06
2.03794e-06
2.04703e-06
2.05321e-06
2.05665e-06
2.05657e-06
2.05197e-06
2.04476e-06
2.03436e-06
2.01793e-06
1.99926e-06
1.97743e-06
1.95229e-06
1.92524e-06
1.89078e-06
1.85402e-06
1.81128e-06
1.76652e-06
1.71979e-06
1.66962e-06
1.61814e-06
1.56294e-06
1.50703e-06
1.44689e-06
1.38581e-06
1.32159e-06
1.256e-06
1.18824e-06
1.11885e-06
1.04815e-06
9.75715e-07
9.02701e-07
8.28027e-07
7.53037e-07
7.1518e-07
6.77323e-07
6.39402e-07
6.01366e-07
5.6333e-07
5.25347e-07
4.87474e-07
4.49602e-07
4.1199e-07
3.74601e-07
3.37238e-07
3.00536e-07
2.63833e-07
2.2767e-07
1.91601e-07
1.55738e-07
1.19589e-07
8.26561e-08
6.37005e-08
4.37511e-08
2.27425e-08
0
)


113
(
0
2.02329e-08
3.91909e-08
5.81748e-08
7.77201e-08
9.81117e-08
1.19517e-07
1.42011e-07
1.65608e-07
1.90288e-07
2.16014e-07
2.42741e-07
2.70423e-07
2.99015e-07
3.28473e-07
3.58809e-07
3.90008e-07
4.21922e-07
4.54503e-07
4.87706e-07
5.21484e-07
5.55787e-07
5.90567e-07
6.25822e-07
6.61419e-07
6.97302e-07
7.33414e-07
7.69693e-07
8.06078e-07
8.42504e-07
8.78906e-07
9.15217e-07
9.51368e-07
9.87373e-07
1.02464e-06
1.05998e-06
1.09488e-06
1.12927e-06
1.16308e-06
1.19625e-06
1.22871e-06
1.26037e-06
1.29118e-06
1.32287e-06
1.36458e-06
1.39701e-06
1.42681e-06
1.45514e-06
1.48046e-06
1.50348e-06
1.52416e-06
1.54241e-06
1.55803e-06
1.57126e-06
1.58268e-06
1.59013e-06
1.593e-06
1.58409e-06
1.56644e-06
1.56969e-06
1.57082e-06
1.57023e-06
1.56767e-06
1.56235e-06
1.55541e-06
1.54645e-06
1.53816e-06
1.52786e-06
1.5115e-06
1.4929e-06
1.47299e-06
1.44957e-06
1.42508e-06
1.39782e-06
1.36866e-06
1.33765e-06
1.30392e-06
1.26915e-06
1.231e-06
1.19224e-06
1.15013e-06
1.10722e-06
1.06164e-06
1.0148e-06
9.65952e-07
9.1545e-07
8.63615e-07
8.09798e-07
7.55321e-07
6.98636e-07
6.41411e-07
6.12174e-07
5.82937e-07
5.53467e-07
5.23575e-07
4.93683e-07
4.63636e-07
4.33268e-07
4.02901e-07
3.72315e-07
3.41542e-07
3.10749e-07
2.79466e-07
2.48183e-07
2.16205e-07
1.84097e-07
1.50722e-07
1.16442e-07
8.0554e-08
6.19108e-08
4.2251e-08
2.17286e-08
0
)


113
(
0
2.83342e-08
5.44989e-08
7.94477e-08
1.03836e-07
1.27979e-07
1.52098e-07
1.76341e-07
2.00798e-07
2.25515e-07
2.5051e-07
2.75784e-07
3.01328e-07
3.27124e-07
3.53151e-07
3.79396e-07
4.05833e-07
4.32405e-07
4.59083e-07
4.85835e-07
5.12632e-07
5.39442e-07
5.66234e-07
5.87245e-07
6.12456e-07
6.38176e-07
6.63669e-07
6.88901e-07
7.13834e-07
7.38433e-07
7.62662e-07
7.86485e-07
8.09866e-07
8.32769e-07
8.55158e-07
8.76984e-07
8.98227e-07
9.18858e-07
9.38843e-07
9.5815e-07
9.76749e-07
9.94583e-07
1.01163e-06
1.02787e-06
1.04328e-06
1.05783e-06
1.07149e-06
1.08424e-06
1.09599e-06
1.10671e-06
1.11643e-06
1.12513e-06
1.13279e-06
1.13941e-06
1.14499e-06
1.14923e-06
1.1523e-06
1.15429e-06
1.15524e-06
1.15474e-06
1.15294e-06
1.1501e-06
1.14605e-06
1.14033e-06
1.13362e-06
1.12567e-06
1.11599e-06
1.10541e-06
1.09324e-06
1.07966e-06
1.06526e-06
1.04863e-06
1.03132e-06
1.01225e-06
9.91957e-07
9.7047e-07
9.47226e-07
9.23302e-07
9.01056e-07
8.78413e-07
8.48891e-07
8.18854e-07
7.87102e-07
7.54521e-07
7.20619e-07
6.85587e-07
6.49645e-07
6.12269e-07
5.74415e-07
5.34793e-07
4.94659e-07
4.73995e-07
4.53332e-07
4.32371e-07
4.10873e-07
3.89375e-07
3.67589e-07
3.45209e-07
3.22829e-07
2.99908e-07
2.76526e-07
2.53099e-07
2.28525e-07
2.03952e-07
1.78166e-07
1.52158e-07
1.24533e-07
9.60147e-08
6.60464e-08
5.05019e-08
3.4252e-08
1.74688e-08
0
)


113
(
0
2.77503e-08
5.36549e-08
7.80902e-08
1.01489e-07
1.24033e-07
1.45874e-07
1.67138e-07
1.8793e-07
2.08328e-07
2.2839e-07
2.48158e-07
2.67661e-07
2.86921e-07
3.05951e-07
3.24742e-07
3.43287e-07
3.61611e-07
3.7971e-07
3.97577e-07
4.15204e-07
4.32581e-07
4.49696e-07
4.66493e-07
4.83001e-07
4.99208e-07
5.15097e-07
5.30655e-07
5.45867e-07
5.60718e-07
5.75191e-07
5.89273e-07
6.02946e-07
6.16197e-07
6.2901e-07
6.41361e-07
6.53244e-07
6.64652e-07
6.75569e-07
6.85985e-07
6.95885e-07
7.05242e-07
7.1405e-07
7.22304e-07
7.29997e-07
7.37116e-07
7.43653e-07
7.496e-07
7.54904e-07
7.59563e-07
7.63597e-07
7.66995e-07
7.6976e-07
7.71894e-07
7.73406e-07
7.74109e-07
7.74124e-07
7.73507e-07
7.72278e-07
7.70211e-07
7.67395e-07
7.63981e-07
7.59875e-07
7.54821e-07
7.49208e-07
7.42902e-07
7.35618e-07
7.2784e-07
7.19172e-07
7.0972e-07
6.99813e-07
6.88679e-07
6.77168e-07
6.64683e-07
6.51526e-07
6.37709e-07
6.22917e-07
6.07748e-07
5.91336e-07
5.74694e-07
5.56778e-07
5.38542e-07
5.19241e-07
4.994e-07
4.78704e-07
4.57226e-07
4.35119e-07
4.11933e-07
3.88386e-07
3.6336e-07
3.37857e-07
3.24549e-07
3.1124e-07
2.97629e-07
2.8347e-07
2.69311e-07
2.54848e-07
2.3976e-07
2.24671e-07
2.09031e-07
1.92923e-07
1.76772e-07
1.59559e-07
1.42345e-07
1.24142e-07
1.05757e-07
8.62174e-08
6.61152e-08
4.51397e-08
3.43367e-08
2.31684e-08
1.1742e-08
0
)


113
(
0
1.83824e-08
3.58684e-08
5.2513e-08
6.84705e-08
8.37821e-08
9.84869e-08
1.1263e-07
1.26256e-07
1.39407e-07
1.52117e-07
1.64417e-07
1.76331e-07
1.87881e-07
1.99085e-07
2.09933e-07
2.20425e-07
2.3061e-07
2.40499e-07
2.50098e-07
2.59413e-07
2.68449e-07
2.77208e-07
2.85653e-07
2.93833e-07
3.01747e-07
3.09398e-07
3.16786e-07
3.23911e-07
3.30773e-07
3.37371e-07
3.43705e-07
3.49774e-07
3.55576e-07
3.61112e-07
3.66372e-07
3.71363e-07
3.76085e-07
3.80536e-07
3.84716e-07
3.88622e-07
3.92245e-07
3.95586e-07
3.98648e-07
4.0143e-07
4.03931e-07
4.06149e-07
4.08084e-07
4.09714e-07
4.11041e-07
4.12077e-07
4.12821e-07
4.13274e-07
4.13441e-07
4.13327e-07
4.1285e-07
4.12067e-07
4.11003e-07
4.09668e-07
4.07964e-07
4.0593e-07
4.03634e-07
4.01035e-07
3.98021e-07
3.94761e-07
3.91197e-07
3.87202e-07
3.82988e-07
3.7838e-07
3.73419e-07
3.68255e-07
3.62532e-07
3.56635e-07
3.50286e-07
3.43617e-07
3.36635e-07
3.29174e-07
3.21529e-07
3.13252e-07
3.04856e-07
2.95784e-07
2.86535e-07
2.76694e-07
2.6654e-07
2.55887e-07
2.44758e-07
2.33245e-07
2.21051e-07
2.08629e-07
1.95254e-07
1.8157e-07
1.7437e-07
1.67169e-07
1.59779e-07
1.52045e-07
1.44311e-07
1.36398e-07
1.28111e-07
1.19825e-07
1.11236e-07
1.02388e-07
9.35193e-08
8.41167e-08
7.47141e-08
6.48611e-08
5.4926e-08
4.45146e-08
3.38909e-08
2.2947e-08
1.73651e-08
1.16629e-08
5.87946e-09
0
)


113
(
0
1.79919e-09
3.55499e-09
5.26569e-09
6.93609e-09
8.56542e-09
1.0153e-08
1.1699e-08
1.32038e-08
1.46682e-08
1.60929e-08
1.74787e-08
1.88263e-08
2.0136e-08
2.14084e-08
2.26411e-08
2.38325e-08
2.49875e-08
2.61064e-08
2.71893e-08
2.82365e-08
2.92481e-08
3.02241e-08
3.11592e-08
3.20595e-08
3.29251e-08
3.37559e-08
3.45522e-08
3.5314e-08
3.60413e-08
3.67342e-08
3.73929e-08
3.80173e-08
3.86077e-08
3.9164e-08
3.96856e-08
4.01734e-08
4.06278e-08
4.10489e-08
4.14368e-08
4.17915e-08
4.21122e-08
4.23994e-08
4.26535e-08
4.28749e-08
4.30636e-08
4.32197e-08
4.33433e-08
4.34322e-08
4.3487e-08
4.35092e-08
4.34987e-08
4.34562e-08
4.33821e-08
4.32771e-08
4.31325e-08
4.29548e-08
4.27468e-08
4.25096e-08
4.22328e-08
4.1921e-08
4.15813e-08
4.12094e-08
4.07937e-08
4.03523e-08
3.98789e-08
3.93606e-08
3.88195e-08
3.82375e-08
3.76192e-08
3.698e-08
3.62838e-08
3.55699e-08
3.48104e-08
3.4019e-08
3.31963e-08
3.23268e-08
3.14392e-08
3.04909e-08
2.95313e-08
2.85087e-08
2.747e-08
2.6378e-08
2.52588e-08
2.40965e-08
2.2895e-08
2.16621e-08
2.03764e-08
1.90731e-08
1.7701e-08
1.63085e-08
1.55883e-08
1.48681e-08
1.41364e-08
1.33838e-08
1.26311e-08
1.18684e-08
1.10851e-08
1.03017e-08
9.50308e-09
8.6914e-09
7.87875e-09
7.0416e-09
6.20444e-09
5.34838e-09
4.48889e-09
3.61099e-09
2.72542e-09
1.82856e-09
1.37638e-09
9.20283e-10
4.61624e-10
0
)

)


10
(

113
(
0
3.38691e-16
8.10769e-16
1.35289e-15
1.93529e-15
2.55505e-15
3.2136e-15
3.90113e-15
4.61865e-15
5.402e-15
6.32439e-15
7.44083e-15
8.8575e-15
1.07769e-14
1.35462e-14
1.81e-14
2.55e-14
3.71462e-14
5.45333e-14
8.78667e-14
1.48523e-13
2.645e-13
4.93667e-13
9.26231e-13
1.70238e-12
3.6925e-12
8.27917e-12
1.89333e-11
4.34e-11
9.72417e-11
2.30658e-10
6.44091e-10
1.73767e-09
4.54e-09
1.17709e-08
3.06273e-08
7.46455e-08
1.67818e-07
3.46e-07
6.56909e-07
1.09055e-06
1.644e-06
2.19636e-06
2.787e-06
3.37091e-06
3.96545e-06
4.58818e-06
5.21333e-06
5.81667e-06
6.4e-06
6.86923e-06
7.29e-06
7.60923e-06
7.81857e-06
7.91143e-06
7.90143e-06
7.82286e-06
7.68e-06
7.46667e-06
7.24125e-06
7.00375e-06
6.74375e-06
6.48125e-06
6.21875e-06
5.97118e-06
5.73e-06
5.50778e-06
5.28667e-06
5.07e-06
4.85556e-06
4.64444e-06
4.44316e-06
4.24842e-06
4.05737e-06
3.86789e-06
3.686e-06
3.506e-06
3.33e-06
3.155e-06
2.98e-06
2.805e-06
2.638e-06
2.473e-06
2.30105e-06
2.12737e-06
1.9705e-06
1.8155e-06
1.655e-06
1.49444e-06
1.33889e-06
1.18624e-06
1.11329e-06
1.04035e-06
9.68063e-07
8.98375e-07
8.28687e-07
7.59e-07
6.95e-07
6.31e-07
5.67e-07
5.00333e-07
4.33667e-07
3.71818e-07
3.13182e-07
2.56444e-07
2.02556e-07
1.51429e-07
1.042e-07
6.52e-08
4.695e-08
2.74e-08
1.16825e-08
0
)


113
(
0
3.95222e-16
8.85686e-16
1.43846e-15
2.04895e-15
2.7381e-15
3.58179e-15
4.80636e-15
7.22977e-15
1.36994e-14
3.29083e-14
9.08788e-14
2.48652e-13
6.50046e-13
1.82397e-12
5.11202e-12
1.34205e-11
3.30279e-11
7.03845e-11
1.55374e-10
3.55727e-10
7.39077e-10
1.45547e-09
2.72821e-09
4.90877e-09
8.97987e-09
1.57911e-08
2.65239e-08
4.27327e-08
6.63836e-08
1.01604e-07
1.52198e-07
2.22463e-07
3.14866e-07
4.32792e-07
5.82565e-07
7.66693e-07
9.87874e-07
1.24762e-06
1.55031e-06
1.89e-06
2.26161e-06
2.66318e-06
3.08555e-06
3.52308e-06
3.96577e-06
4.40546e-06
4.83275e-06
5.24038e-06
5.62003e-06
5.95254e-06
6.24551e-06
6.49004e-06
6.68876e-06
6.83023e-06
6.91298e-06
6.95346e-06
6.95256e-06
6.88939e-06
6.7989e-06
6.68109e-06
6.52546e-06
6.35715e-06
6.16903e-06
5.96911e-06
5.76414e-06
5.55183e-06
5.33955e-06
5.12735e-06
4.91694e-06
4.70923e-06
4.50553e-06
4.30451e-06
4.10867e-06
3.91503e-06
3.72703e-06
3.54044e-06
3.35888e-06
3.17857e-06
3.00248e-06
2.82744e-06
2.65605e-06
2.48557e-06
2.31841e-06
2.15207e-06
1.9895e-06
1.82735e-06
1.66924e-06
1.51209e-06
1.35953e-06
1.2087e-06
1.13533e-06
1.06195e-06
9.89208e-07
9.19001e-07
8.48793e-07
7.78586e-07
7.11822e-07
6.45058e-07
5.78294e-07
5.15172e-07
4.52049e-07
3.91378e-07
3.32342e-07
2.75167e-07