/*--------------------------------*- C++ -*----------------------------------*\
| =========                 |                                                 |
| \\      /  F ield         | OpenFOAM: The Open Source CFD Toolbox           |
|  \\    /   O peration     | Version:  2.3.0                                 |
|   \\  /    A nd           | Web:      www.OpenFOAM.org                      |
|    \\/     M anipulation  |                                                 |
\*---------------------------------------------------------------------------*/
FoamFile
{
    version     2.0;
    format      ascii;
    class       dictionary;
    location    "constant";
    object      HCO;
}
// * * * * * * * * * * * * * * * * * * * * * * * * * * * * * * * * * * * * * //

HCO_table
13
(

10
(

113
(
0
2.79875e-22
7.82012e-21
8.3206e-20
4.9386e-19
2.05929e-18
6.98786e-18
2.75842e-17
8.7029e-17
1.99126e-16
5.58066e-16
1.4641e-15
2.8e-15
7.89434e-15
1.93292e-14
3.98882e-14
1.12221e-13
2.43122e-13
5.9678e-13
1.51963e-12
2.94724e-12
7.815e-12
1.63222e-11
3.41e-11
7.38827e-11
1.27696e-10
2.62478e-10
4.65255e-10
7.65876e-10
1.30097e-09
1.97869e-09
2.97244e-09
4.25006e-09
5.71535e-09
7.48264e-09
9.30918e-09
1.12142e-08
1.43513e-08
1.99272e-08
3.15095e-08
5.12732e-08
7.38081e-08
8.97087e-08
9.60341e-08
9.31599e-08
8.44942e-08
7.48536e-08
6.62503e-08
5.83416e-08
5.19092e-08
4.6238e-08
4.14251e-08
3.72813e-08
3.35833e-08
3.06051e-08
2.79655e-08
2.61104e-08
2.45757e-08
2.37333e-08
2.32019e-08
2.34429e-08
2.41571e-08
2.56907e-08
2.79804e-08
3.11944e-08
3.59167e-08
4.14771e-08
5.00092e-08
5.874e-08
7.224e-08
8.574e-08
1.01621e-07
1.17956e-07
1.29959e-07
1.39419e-07
1.41522e-07
1.3304e-07
1.22277e-07
1.00374e-07
7.84712e-08
5.9222e-08
4.02352e-08
2.70283e-08
1.70726e-08
9.51121e-09
5.8565e-09
2.60206e-09
1.61583e-09
6.29587e-10
3.65808e-10
1.24372e-10
7.89398e-11
5.72816e-11
3.56235e-11
1.39653e-11
8.28438e-12
5.64674e-12
3.0091e-12
1.02476e-12
7.20329e-13
4.15899e-13
1.42587e-13
9.74746e-14
5.23627e-14
2.28181e-14
1.30867e-14
5.27111e-15
2.38222e-15
7.41179e-16
2.68394e-16
9.83229e-17
1.24014e-17
0
)


113
(
0
9.14534e-19
9.40361e-18
6.29841e-17
2.90257e-16
1.0703e-15
3.45862e-15
1.25361e-14
3.79701e-14
8.58752e-14
2.41872e-13
6.0887e-13
1.14165e-12
2.78618e-12
5.62018e-12
1.01658e-11
2.0258e-11
3.42924e-11
6.08046e-11
1.03231e-10
1.5977e-10
2.65395e-10
4.00673e-10
6.04827e-10
9.05443e-10
1.26508e-09
1.85798e-09
2.59457e-09
3.53792e-09
4.87413e-09
6.44803e-09
8.54659e-09
1.11126e-08
1.39943e-08
1.77009e-08
2.17234e-08
2.61645e-08
3.10034e-08
3.59151e-08
4.08344e-08
4.53888e-08
4.96538e-08
5.29996e-08
5.55877e-08
5.74477e-08
5.78966e-08
5.79143e-08
5.66183e-08
5.49517e-08
5.24978e-08
4.98084e-08
4.68534e-08
4.39693e-08
4.11325e-08
3.87176e-08
3.65013e-08
3.5018e-08
3.38341e-08
3.35682e-08
3.37149e-08
3.48574e-08
3.66103e-08
3.92801e-08
4.27964e-08
4.69571e-08
5.21694e-08
5.76381e-08
6.40161e-08
7.03921e-08
7.67215e-08
8.30509e-08
8.78667e-08
9.23942e-08
9.46334e-08
9.55286e-08
9.45531e-08
9.08855e-08
8.65409e-08
7.88917e-08
7.12424e-08
6.18776e-08
5.23431e-08
4.32038e-08
3.42868e-08
2.62718e-08
1.97286e-08
1.35927e-08
9.76505e-09
5.93743e-09
4.04063e-09
2.20355e-09
1.70918e-09
1.34874e-09
9.88312e-10
6.27881e-10
4.69097e-10
3.48722e-10
2.28347e-10
1.31865e-10
9.68204e-11
6.17761e-11
2.98301e-11
2.0606e-11
1.13818e-11
5.20138e-12
2.89485e-12
1.06614e-12
4.66144e-13
1.4569e-13
6.19378e-14
2.95979e-14
9.02949e-15
0
)


113
(
0
5.57267e-13
1.79386e-12
4.3109e-12
8.7232e-12
1.58393e-11
2.71002e-11
4.66935e-11
7.4226e-11
1.09636e-10
1.64968e-10
2.39624e-10
3.29463e-10
4.69632e-10
6.38342e-10
8.48124e-10
1.12112e-09
1.43342e-09
1.86054e-09
2.34665e-09
2.88506e-09
3.58837e-09
4.36818e-09
5.31353e-09
6.34018e-09
7.41729e-09
8.72614e-09
1.01196e-08
1.16347e-08
1.32814e-08
1.49882e-08
1.6797e-08
1.86915e-08
2.0641e-08
2.2599e-08
2.45628e-08
2.65343e-08
2.84591e-08
3.03451e-08
3.21485e-08
3.38502e-08
3.54815e-08
3.69325e-08
3.82804e-08
3.95295e-08
4.05786e-08
4.15713e-08
4.24166e-08
4.32079e-08
4.38847e-08
4.45065e-08
4.50665e-08
4.56467e-08
4.62404e-08
4.68604e-08
4.74926e-08
4.83341e-08
4.92611e-08
5.02429e-08
5.12494e-08
5.24535e-08
5.37788e-08
5.5146e-08
5.65519e-08
5.79535e-08
5.93482e-08
6.06916e-08
6.18534e-08
6.29959e-08
6.36743e-08
6.43528e-08
6.44003e-08
6.43278e-08
6.36923e-08
6.27264e-08
6.13511e-08
5.93867e-08
5.72671e-08
5.43895e-08
5.1512e-08
4.79493e-08
4.4319e-08
4.04722e-08
3.65037e-08
3.25214e-08
2.85163e-08
2.45672e-08
2.09357e-08
1.73041e-08
1.43377e-08
1.13918e-08
1.01666e-08
9.01968e-09
7.87273e-09
6.72579e-09
5.84815e-09
5.0218e-09
4.19546e-09
3.44674e-09
2.89763e-09
2.34851e-09
1.82316e-09
1.4721e-09
1.12104e-09
8.26431e-10
6.03669e-10
4.03016e-10
2.59215e-10
1.46034e-10
9.83363e-11
6.22111e-11
2.98443e-11
0
)


113
(
0
4.50589e-11
1.01113e-10
1.76307e-10
2.72235e-10
3.90744e-10
5.36356e-10
7.17362e-10
9.27889e-10
1.16561e-09
1.45633e-09
1.78366e-09
2.13975e-09
2.58273e-09
3.05743e-09
3.57778e-09
4.16523e-09
4.78416e-09
5.47495e-09
6.22028e-09
7.01398e-09
7.85626e-09
8.7283e-09
9.66969e-09
1.06384e-08
1.16244e-08
1.27102e-08
1.38226e-08
1.49731e-08
1.61711e-08
1.73948e-08
1.86704e-08
1.99394e-08
2.12046e-08
2.24888e-08
2.37954e-08
2.51319e-08
2.64274e-08
2.77228e-08
2.90372e-08
3.03212e-08
3.15975e-08
3.29188e-08
3.4169e-08
3.53508e-08
3.65975e-08
3.7841e-08
3.89583e-08
4.00933e-08
4.12661e-08
4.23592e-08
4.33624e-08
4.43126e-08
4.52275e-08
4.62032e-08
4.72074e-08
4.80062e-08
4.8721e-08
4.93724e-08
4.99953e-08
5.05627e-08
5.10961e-08
5.15106e-08
5.18154e-08
5.2037e-08
5.21231e-08
5.21435e-08
5.19314e-08
5.17102e-08
5.12703e-08
5.08304e-08
5.00772e-08
4.92643e-08
4.82603e-08
4.7144e-08
4.58893e-08
4.44353e-08
4.29354e-08
4.12106e-08
3.94858e-08
3.74374e-08
3.53571e-08
3.32503e-08
3.11286e-08
2.88944e-08
2.64768e-08
2.40795e-08
2.17981e-08
1.95167e-08
1.72929e-08
1.50708e-08
1.40235e-08
1.29962e-08
1.19689e-08
1.09417e-08
1.00062e-08
9.08818e-09
8.17018e-09
7.28578e-09
6.48778e-09
5.68977e-09
4.90597e-09
4.22629e-09
3.54662e-09
2.91401e-09
2.34131e-09
1.79263e-09
1.30573e-09
8.54439e-10
6.38708e-10
4.31567e-10
2.21996e-10
0
)


113
(
0
2.23278e-10
4.46183e-10
6.91127e-10
9.63418e-10
1.2649e-09
1.59923e-09
1.97183e-09
2.37322e-09
2.80021e-09
3.27238e-09
3.77269e-09
4.2951e-09
4.86867e-09
5.46321e-09
6.08793e-09
6.75305e-09
7.43663e-09
8.16099e-09
8.91015e-09
9.6813e-09
1.0492e-08
1.13176e-08
1.21731e-08
1.30741e-08
1.40017e-08
1.49775e-08
1.59454e-08
1.69019e-08
1.79216e-08
1.89267e-08
1.98177e-08
2.08171e-08
2.18854e-08
2.29401e-08
2.39426e-08
2.48762e-08
2.59204e-08
2.69539e-08
2.79059e-08
2.88595e-08
2.98175e-08
3.08028e-08
3.17626e-08
3.26981e-08
3.34983e-08
3.42856e-08
3.51768e-08
3.60307e-08
3.68055e-08
3.7523e-08
3.81756e-08
3.88199e-08
3.94587e-08
3.99525e-08
4.0378e-08
4.07967e-08
4.12127e-08
4.15179e-08
4.17733e-08
4.19656e-08
4.21192e-08
4.21863e-08
4.21735e-08
4.20699e-08
4.1818e-08
4.15498e-08
4.12241e-08
4.08934e-08
4.04452e-08
3.99969e-08
3.92256e-08
3.83927e-08
3.75304e-08
3.66507e-08
3.56903e-08
3.46135e-08
3.35158e-08
3.23159e-08
3.1116e-08
2.97902e-08
2.84519e-08
2.70397e-08
2.55858e-08
2.40988e-08
2.25577e-08
2.10084e-08
1.94124e-08
1.78164e-08
1.62009e-08
1.45847e-08
1.37821e-08
1.29813e-08
1.21805e-08
1.13796e-08
1.05983e-08
9.82072e-09
9.04314e-09
8.27572e-09
7.53447e-09
6.79321e-09
6.05714e-09
5.35905e-09
4.66096e-09
3.97986e-09
3.32039e-09
2.66658e-09
2.02733e-09
1.3838e-09
1.0598e-09
7.22706e-10
3.73313e-10
0
)


113
(
0
4.56496e-10
8.82599e-10
1.30579e-09
1.73895e-09
2.18735e-09
2.65559e-09
3.14849e-09
3.65993e-09
4.18777e-09
4.74354e-09
5.31565e-09
5.90059e-09
6.51309e-09
7.13603e-09
7.77397e-09
8.43041e-09
9.09498e-09
9.77665e-09
1.04678e-08
1.11672e-08
1.18802e-08
1.25977e-08
1.3324e-08
1.4056e-08
1.47913e-08
1.55321e-08
1.6274e-08
1.70174e-08
1.77602e-08
1.8502e-08
1.92407e-08
1.99749e-08
2.07045e-08
2.13495e-08
2.20204e-08
2.27257e-08
2.34166e-08
2.40994e-08
2.47675e-08
2.54195e-08
2.60611e-08
2.66791e-08
2.74856e-08
2.84731e-08
2.91545e-08
2.97556e-08
3.01782e-08
3.06303e-08
3.1145e-08
3.15587e-08
3.18583e-08
3.21375e-08
3.24031e-08
3.26807e-08
3.2964e-08
3.2735e-08
3.22967e-08
3.22004e-08
3.22577e-08
3.22599e-08
3.22282e-08
3.21478e-08
3.20223e-08
3.18597e-08
3.16366e-08
3.1411e-08
3.11768e-08
3.09345e-08
3.05002e-08
3.00659e-08
2.95469e-08
2.90119e-08
2.84138e-08
2.77787e-08
2.71035e-08
2.63703e-08
2.56211e-08
2.47933e-08
2.39655e-08
2.30563e-08
2.21392e-08
2.11699e-08
2.01712e-08
1.91456e-08
1.80762e-08
1.69981e-08
1.58712e-08
1.47443e-08
1.35772e-08
1.24088e-08
1.18155e-08
1.12193e-08
1.0623e-08
1.00268e-08
9.42704e-09
8.82656e-09
8.22608e-09
7.62559e-09
7.02509e-09
6.42459e-09
5.82385e-09
5.22133e-09
4.6188e-09
4.01118e-09
3.39707e-09
2.77563e-09
2.13533e-09
1.4693e-09
1.12796e-09
7.6704e-10
3.93723e-10
0
)


113
(
0
6.08951e-10
1.17147e-09
1.70651e-09
2.2284e-09
2.74395e-09
3.25759e-09
3.77354e-09
4.29279e-09
4.81533e-09
5.34479e-09
5.87863e-09
6.41591e-09
6.96043e-09
7.50744e-09
8.05801e-09
8.61216e-09
9.16767e-09
9.72542e-09
1.02836e-08
1.08422e-08
1.13999e-08
1.19306e-08
1.23846e-08
1.28884e-08
1.34199e-08
1.39426e-08
1.44609e-08
1.49727e-08
1.54743e-08
1.59703e-08
1.64548e-08
1.69293e-08
1.7397e-08
1.7847e-08
1.82884e-08
1.87186e-08
1.91304e-08
1.95328e-08
1.99183e-08
2.02868e-08
2.06444e-08
2.09786e-08
2.12979e-08
2.1603e-08
2.18814e-08
2.21508e-08
2.23893e-08
2.26156e-08
2.28163e-08
2.29979e-08
2.31581e-08
2.32925e-08
2.34097e-08
2.34957e-08
2.35669e-08
2.36036e-08
2.36261e-08
2.36131e-08
2.3584e-08
2.35215e-08
2.34384e-08
2.33261e-08
2.31869e-08
2.30257e-08
2.28284e-08
2.26182e-08
2.23618e-08
2.21029e-08
2.17864e-08
2.14698e-08
2.11024e-08
2.07253e-08
2.03102e-08
1.98728e-08
1.9411e-08
1.89139e-08
1.84218e-08
1.79534e-08
1.74851e-08
1.68717e-08
1.6244e-08
1.5584e-08
1.49059e-08
1.42102e-08
1.34858e-08
1.27551e-08
1.1989e-08
1.1223e-08
1.04211e-08
9.61808e-09
9.20387e-09
8.78563e-09
8.3674e-09
7.94916e-09
7.51696e-09
7.0821e-09
6.64723e-09
6.20703e-09
5.75312e-09
5.2992e-09
4.84236e-09
4.36415e-09
3.88594e-09
3.39401e-09
2.88463e-09
2.36494e-09
1.81872e-09
1.24752e-09
9.54176e-10
6.45774e-10
3.29157e-10
0
)


113
(
0
5.82762e-10
1.12702e-09
1.63986e-09
2.13023e-09
2.60267e-09
3.05926e-09
3.50169e-09
3.93539e-09
4.36186e-09
4.77777e-09
5.18813e-09
5.59415e-09
5.99119e-09
6.38474e-09
6.77329e-09
7.1551e-09
7.53376e-09
7.90525e-09
8.27197e-09
8.63446e-09
8.98838e-09
9.3387e-09
9.68153e-09
1.00175e-08
1.03493e-08
1.06698e-08
1.09854e-08
1.12938e-08
1.15918e-08
1.18845e-08
1.21664e-08
1.24396e-08
1.27068e-08
1.29594e-08
1.32053e-08
1.34422e-08
1.36653e-08
1.38815e-08
1.40852e-08
1.42769e-08
1.4461e-08
1.46291e-08
1.47872e-08
1.49358e-08
1.5067e-08
1.51924e-08
1.52981e-08
1.53963e-08
1.54786e-08
1.55492e-08
1.56068e-08
1.5649e-08
1.56809e-08
1.56945e-08
1.56995e-08
1.56845e-08
1.56614e-08
1.5618e-08
1.55655e-08
1.54942e-08
1.54114e-08
1.53124e-08
1.51984e-08
1.50724e-08
1.49265e-08
1.47736e-08
1.45955e-08
1.44161e-08
1.42054e-08
1.39948e-08
1.37566e-08
1.35133e-08
1.32494e-08
1.29734e-08
1.26841e-08
1.23757e-08
1.20617e-08
1.17209e-08
1.13801e-08
1.101e-08
1.0637e-08
1.02435e-08
9.83852e-09
9.42136e-09
8.98438e-09
8.54254e-09
8.07312e-09
7.6037e-09
7.10154e-09
6.59837e-09
6.33303e-09
6.06333e-09
5.79364e-09
5.52395e-09
5.23747e-09
4.9478e-09
4.65813e-09
4.36217e-09
4.05004e-09
3.73792e-09
3.42278e-09
3.08559e-09
2.7484e-09
2.39945e-09
2.03551e-09
1.6642e-09
1.27394e-09
8.68398e-10
6.60982e-10
4.45394e-10
2.25703e-10
0
)


113
(
0
3.76365e-10
7.34453e-10
1.07513e-09
1.40139e-09
1.71468e-09
2.01503e-09
2.30202e-09
2.57981e-09
2.84968e-09
3.10673e-09
3.35649e-09
3.60052e-09
3.83227e-09
4.05926e-09
4.27942e-09
4.49077e-09
4.69813e-09
4.89676e-09
5.09004e-09
5.27859e-09
5.45839e-09
5.63477e-09
5.80416e-09
5.96768e-09
6.12772e-09
6.27891e-09
6.42645e-09
6.56874e-09
6.70398e-09
6.83562e-09
6.96035e-09
7.07972e-09
7.19551e-09
7.30271e-09
7.40613e-09
7.50456e-09
7.5955e-09
7.68274e-09
7.76351e-09
7.83813e-09
7.90892e-09
7.97173e-09
8.02974e-09
8.08313e-09
8.12825e-09
8.17065e-09
8.20389e-09
8.23368e-09
8.25617e-09
8.27344e-09
8.28482e-09
8.28936e-09
8.28932e-09
8.28124e-09
8.26938e-09
8.24881e-09
8.22469e-09
8.19181e-09
8.15499e-09
8.11007e-09
8.06019e-09
8.00331e-09
7.93999e-09
7.87142e-09
7.7943e-09
7.71408e-09
7.62286e-09
7.53105e-09
7.42536e-09
7.31966e-09
7.2015e-09
7.08096e-09
6.9508e-09
6.815e-09
6.67271e-09
6.52108e-09
6.36663e-09
6.19843e-09
6.03023e-09
5.84613e-09
5.66045e-09
5.4629e-09
5.25867e-09
5.04693e-09
4.82293e-09
4.59575e-09
4.35052e-09
4.10529e-09
3.83792e-09
3.56986e-09
3.42655e-09
3.28032e-09
3.13409e-09
2.98786e-09
2.83083e-09
2.67176e-09
2.51268e-09
2.3499e-09
2.1776e-09
2.0053e-09
1.83142e-09
1.64597e-09
1.46051e-09
1.26962e-09
1.0718e-09
8.70955e-10
6.62354e-10
4.48118e-10
3.39308e-10
2.27715e-10
1.148e-10
0
)


113
(
0
3.56762e-11
7.05026e-11
1.04437e-10
1.37562e-10
1.69903e-10
2.01402e-10
2.31945e-10
2.61781e-10
2.90991e-10
3.19109e-10
3.46556e-10
3.73475e-10
3.9918e-10
4.24386e-10
4.48875e-10
4.72393e-10
4.95462e-10
5.17527e-10
5.38959e-10
5.59829e-10
5.79636e-10
5.99023e-10
6.17548e-10
6.3534e-10
6.52697e-10
6.68947e-10
6.84739e-10
6.99872e-10
7.14124e-10
7.27928e-10
7.40872e-10
7.53156e-10
7.64998e-10
7.7579e-10
7.86126e-10
7.95858e-10
8.04695e-10
8.13091e-10
8.20723e-10
8.27638e-10
8.34104e-10
8.3965e-10
8.44647e-10
8.49117e-10
8.52651e-10
8.55881e-10
8.58087e-10
8.59912e-10
8.60929e-10
8.61374e-10
8.61176e-10
8.60234e-10
8.58796e-10
8.56492e-10
8.53781e-10
8.50138e-10
8.46116e-10
8.41163e-10
8.35793e-10
8.29565e-10
8.22812e-10
8.15324e-10
8.07158e-10
7.98442e-10
7.88831e-10
7.78896e-10
7.67815e-10
7.56673e-10
7.44093e-10
7.31512e-10
7.17649e-10
7.03543e-10
6.88458e-10
6.72799e-10
6.5649e-10
6.39247e-10
6.21728e-10
6.02862e-10
5.83996e-10
5.63619e-10
5.43093e-10
5.21484e-10
4.99268e-10
4.76402e-10
4.52478e-10
4.28298e-10
4.02664e-10
3.7703e-10
3.49756e-10
3.22432e-10
3.08148e-10
2.93668e-10
2.79187e-10
2.64707e-10
2.49579e-10
2.34327e-10
2.19076e-10
2.03627e-10
1.87669e-10
1.71711e-10
1.55678e-10
1.39096e-10
1.22513e-10
1.057e-10
8.85912e-11
7.13665e-11
5.38422e-11
3.61169e-11
2.71944e-11
1.81781e-11
9.11903e-12
0
)

)


10
(

113
(
0
6.79365e-20
1.6233e-18
1.72224e-17
9.25375e-17
3.96774e-16
1.50889e-15
5.18386e-15
1.5936e-14
4.36347e-14
1.07467e-13
2.4221e-13
5.08943e-13
1.01231e-12
1.92387e-12
3.62163e-12
6.97782e-12
1.30957e-11
2.39021e-11
4.23693e-11
7.29097e-11
1.21884e-10
1.98437e-10
3.24746e-10
5.15224e-10
7.94204e-10
1.19113e-09
1.74135e-09
2.48556e-09
3.46735e-09
4.73003e-09
6.31235e-09
8.24323e-09
1.05277e-08
1.31872e-08
1.65373e-08
2.25471e-08
3.87198e-08
8.331e-08
1.79852e-07
3.29303e-07
4.84867e-07
5.83187e-07
6.02258e-07
5.61183e-07
4.9202e-07
4.20327e-07
3.59548e-07
3.1498e-07
2.85244e-07
2.67071e-07
2.58227e-07
2.56775e-07
2.61305e-07
2.70766e-07
2.85369e-07
3.03126e-07
3.22665e-07
3.42935e-07
3.61491e-07
3.74287e-07
3.80537e-07
3.77563e-07
3.59177e-07
3.32686e-07
2.96506e-07
2.5361e-07
2.09867e-07
1.67309e-07
1.30076e-07
9.59312e-08
7.19215e-08
5.05881e-08
3.60392e-08
2.47198e-08
1.65784e-08
1.12793e-08
7.07994e-09
4.86636e-09
2.93558e-09
2.02609e-09
1.23508e-09
8.38437e-10
5.26046e-10
3.47667e-10
2.20372e-10
1.34202e-10
8.2596e-11
4.25108e-11
2.59512e-11
1.2675e-11
9.72252e-12
6.77007e-12
4.50495e-12
3.48316e-12
2.46138e-12
1.64936e-12
1.27103e-12
8.92702e-13
6.31791e-13
4.70904e-13
3.13125e-13
2.34054e-13
1.54983e-13
1.06249e-13
6.29326e-14
3.77556e-14
1.81731e-14
6.3196e-15
2.6334e-15
8.94412e-16
1.10292e-16
0
)


113
(
0
9.889e-17
7.83515e-16
4.01975e-15
1.40864e-14
4.15504e-14
1.09332e-13
2.69977e-13
6.26402e-13
1.36184e-12
2.80126e-12
5.46976e-12
1.01772e-11
1.81276e-11
3.10202e-11
5.21022e-11
8.7236e-11
1.41712e-10
2.24351e-10
3.47786e-10
5.3028e-10
7.9828e-10
1.19083e-09
1.81109e-09
2.7365e-09
4.10588e-09
6.1237e-09
9.0749e-09
1.33464e-08
1.93428e-08
2.74461e-08
3.81747e-08
5.20246e-08
6.9412e-08
9.04584e-08
1.15161e-07
1.43e-07
1.73191e-07
2.04612e-07
2.36005e-07
2.65941e-07
2.92823e-07
3.15883e-07
3.33872e-07
3.46685e-07
3.54225e-07
3.56894e-07
3.55588e-07
3.51401e-07
3.45372e-07
3.38566e-07
3.3197e-07
3.26271e-07
3.21828e-07
3.18761e-07
3.17185e-07
3.16262e-07
3.15403e-07
3.14202e-07
3.11623e-07
3.06913e-07
3.00203e-07
2.9092e-07
2.77787e-07
2.62533e-07
2.44701e-07
2.24118e-07
2.02571e-07
1.79743e-07
1.57004e-07
1.34315e-07
1.13485e-07
9.35551e-08
7.60745e-08
6.05777e-08
4.70333e-08
3.63044e-08
2.6665e-08
2.00816e-08
1.39963e-08
1.02477e-08
6.88508e-09
4.8075e-09
3.12265e-09
2.06252e-09
1.31067e-09
8.0699e-10
5.09025e-10
2.79631e-10
1.80039e-10
9.8135e-11
7.70067e-11
5.58783e-11
3.91384e-11
3.03372e-11
2.1536e-11
1.44444e-11
1.08874e-11
7.3305e-12
4.90746e-12
3.45034e-12
2.02605e-12
1.43272e-12
8.39395e-13
5.37858e-13
2.88091e-13
1.72623e-13
8.6739e-14
3.79188e-14
2.18684e-14
1.17505e-14
4.56758e-15
0
)


113
(
0
2.25247e-12
7.3414e-12
1.79463e-11
3.66117e-11
6.76784e-11
1.18462e-10
1.99167e-10
3.21632e-10
4.96907e-10
7.47678e-10
1.09409e-09
1.5639e-09
2.19059e-09
3.00479e-09
4.0555e-09
5.45161e-09
7.20057e-09
9.33913e-09
1.19129e-08
1.4984e-08
1.86325e-08
2.29495e-08
2.81087e-08
3.39873e-08
4.05532e-08
4.78411e-08
5.58887e-08
6.47756e-08
7.45652e-08
8.52038e-08
9.65713e-08
1.0846e-07
1.20706e-07
1.33217e-07
1.46136e-07
1.59281e-07
1.72366e-07
1.85322e-07
1.98035e-07
2.103e-07
2.22023e-07
2.32961e-07
2.43313e-07
2.52616e-07
2.61149e-07
2.68475e-07
2.74667e-07
2.80045e-07
2.84149e-07
2.86934e-07
2.88397e-07
2.88781e-07
2.88194e-07
2.86567e-07
2.83651e-07
2.79563e-07
2.74584e-07
2.68825e-07
2.62011e-07
2.54228e-07
2.45719e-07
2.36409e-07
2.26204e-07
2.15543e-07
2.04344e-07
1.92624e-07
1.80706e-07
1.68501e-07
1.56203e-07
1.43852e-07
1.31659e-07
1.19599e-07
1.07915e-07
9.66599e-08
8.58274e-08
7.57228e-08
6.58999e-08
5.71891e-08
4.87001e-08
4.1556e-08
3.47333e-08
2.89807e-08
2.37054e-08
1.91894e-08
1.53076e-08
1.19364e-08
9.31285e-09
6.93858e-09
5.27966e-09
3.79627e-09
3.25753e-09
2.7188e-09
2.24712e-09
1.89676e-09
1.54639e-09
1.23934e-09
1.02186e-09
8.04378e-10
6.32189e-10
4.98584e-10
3.66957e-10
2.85401e-10
2.03846e-10
1.489e-10
9.87242e-11
6.683e-11
4.05185e-11
2.17571e-11
1.44627e-11
8.91495e-12
4.20861e-12
0
)


113
(
0
2.44019e-10
5.50402e-10
9.66383e-10
1.49923e-09
2.16798e-09
2.99342e-09
3.99589e-09
5.19472e-09
6.60789e-09
8.25202e-09
1.01427e-08
1.22832e-08
1.47116e-08
1.75113e-08
2.06777e-08
2.40431e-08
2.7668e-08
3.17046e-08
3.6061e-08
4.06878e-08
4.57168e-08
5.10753e-08
5.68621e-08
6.27817e-08
6.89574e-08
7.54585e-08
8.234e-08
8.93939e-08
9.64481e-08
1.03671e-07
1.10897e-07
1.18177e-07
1.25768e-07
1.3339e-07
1.40997e-07
1.48079e-07
1.55113e-07
1.62161e-07
1.68922e-07
1.753e-07
1.81457e-07
1.87194e-07
1.92519e-07
1.97541e-07
2.019e-07
2.05983e-07
2.0941e-07
2.12199e-07
2.14729e-07
2.16486e-07
2.1743e-07
2.17854e-07
2.17851e-07
2.1725e-07
2.15814e-07
2.13823e-07
2.11404e-07
2.08575e-07
2.04994e-07
2.00795e-07
1.96108e-07
1.90861e-07
1.85247e-07
1.79403e-07
1.73268e-07
1.66607e-07
1.59726e-07
1.52501e-07
1.45232e-07
1.37937e-07
1.30388e-07
1.22784e-07
1.15044e-07
1.07338e-07
9.96637e-08
9.24446e-08
8.54016e-08
7.84497e-08
7.15285e-08
6.48697e-08
5.8362e-08
5.23573e-08
4.65663e-08
4.11149e-08
3.60598e-08
3.13237e-08
2.70633e-08
2.29616e-08
1.94718e-08
1.61578e-08
1.47051e-08
1.32524e-08
1.1892e-08
1.06986e-08
9.50513e-09
8.38479e-09
7.41553e-09
6.44627e-09
5.57825e-09
4.79648e-09
4.0205e-09
3.39117e-09
2.76185e-09
2.23541e-09
1.72758e-09
1.31119e-09
9.2864e-10
5.92655e-10
4.37977e-10
2.92671e-10
1.48912e-10
0
)


113
(
0
1.2915e-09
2.57671e-09
3.99193e-09
5.56294e-09
7.30855e-09
9.23861e-09
1.13559e-08
1.36591e-08
1.61452e-08
1.88103e-08
2.16503e-08
2.46606e-08
2.78371e-08
3.11746e-08
3.46788e-08
3.83501e-08
4.21614e-08
4.61047e-08
5.01714e-08
5.4352e-08
5.86367e-08
6.30145e-08
6.74831e-08
7.1988e-08
7.67108e-08
8.16465e-08
8.63851e-08
9.10115e-08
9.57944e-08
1.00387e-07
1.04967e-07
1.09654e-07
1.13891e-07
1.184e-07
1.22695e-07
1.26641e-07
1.30159e-07
1.33997e-07
1.37723e-07
1.41258e-07
1.44166e-07
1.47228e-07
1.49901e-07
1.52394e-07
1.54618e-07
1.56618e-07
1.58338e-07
1.59658e-07
1.60802e-07
1.617e-07
1.62159e-07
1.6233e-07
1.62243e-07
1.61754e-07
1.61281e-07
1.6038e-07
1.5908e-07
1.57423e-07
1.55459e-07
1.53417e-07
1.51097e-07
1.48274e-07
1.45515e-07
1.42536e-07
1.39182e-07
1.35023e-07
1.30874e-07
1.27185e-07
1.23592e-07
1.20056e-07
1.14816e-07
1.09466e-07
1.03981e-07
9.92152e-08
9.51585e-08
9.03996e-08
8.53691e-08
8.04544e-08
7.55548e-08
7.06978e-08
6.58649e-08
6.11122e-08
5.64207e-08
5.18266e-08
4.73467e-08
4.29587e-08
3.87545e-08
3.46115e-08
3.07398e-08
2.69563e-08
2.51676e-08
2.33789e-08
2.16435e-08
2.00047e-08
1.83659e-08
1.67757e-08
1.52859e-08
1.37961e-08
1.23835e-08
1.10366e-08
9.69477e-09
8.47843e-09
7.26209e-09
6.1392e-09
5.03318e-09
4.00657e-09
3.003e-09
2.02465e-09
1.53835e-09
1.04415e-09
5.35768e-10
0
)


113
(
0
2.43345e-09
4.68094e-09
6.89835e-09
9.15194e-09
1.14729e-08
1.38778e-08
1.63726e-08
1.89563e-08
2.16241e-08
2.43698e-08
2.71861e-08
3.00661e-08
3.30029e-08
3.59898e-08
3.90225e-08
4.20946e-08
4.51941e-08
4.83145e-08
5.14493e-08
5.45923e-08
5.77368e-08
6.08762e-08
6.40006e-08
6.71042e-08
7.01806e-08
7.32231e-08
7.6225e-08
7.91797e-08
8.20805e-08
8.49207e-08
8.76939e-08
9.03935e-08
9.3003e-08
9.5329e-08
9.77684e-08
1.0011e-07
1.02351e-07
1.04484e-07
1.06506e-07
1.08413e-07
1.10197e-07
1.11855e-07
1.13654e-07
1.16884e-07
1.18221e-07
1.19581e-07
1.20729e-07
1.21711e-07
1.22393e-07
1.22796e-07
1.23086e-07
1.23138e-07
1.22913e-07
1.22536e-07
1.21946e-07
1.21551e-07
1.19592e-07
1.16154e-07
1.15091e-07
1.13866e-07
1.12517e-07
1.11024e-07
1.09343e-07
1.07556e-07
1.05638e-07
1.03676e-07
1.01608e-07
9.92562e-08
9.6787e-08
9.42497e-08
9.15434e-08
8.87899e-08
8.59152e-08
8.29669e-08
7.99463e-08
7.68341e-08
7.36866e-08
7.04435e-08
6.71847e-08
6.38511e-08
6.05049e-08
5.71166e-08
5.3718e-08
5.03027e-08
4.68882e-08
4.34744e-08
4.00829e-08
3.66989e-08
3.33715e-08
3.00685e-08
2.84459e-08
2.68233e-08
2.52185e-08
2.36462e-08
2.20739e-08
2.05195e-08
1.90023e-08
1.74851e-08
1.59964e-08
1.45321e-08
1.30694e-08
1.1647e-08
1.02246e-08
8.82109e-09
7.42083e-09
6.01674e-09
4.59702e-09
3.14443e-09
2.40118e-09
1.62996e-09
8.33361e-10
0
)


113
(
0
2.82256e-09
5.40241e-09
7.83553e-09
1.01905e-08
1.24982e-08
1.47798e-08
1.70495e-08
1.93157e-08
2.15828e-08
2.38523e-08
2.61242e-08
2.83972e-08
3.06695e-08
3.29388e-08
3.52018e-08
3.74543e-08
3.96939e-08
4.19178e-08
4.41229e-08
4.63063e-08
4.84651e-08
5.05963e-08
5.23651e-08
5.4332e-08
5.62946e-08
5.82119e-08
6.0081e-08
6.18989e-08
6.3663e-08
6.53705e-08
6.70189e-08
6.86055e-08
7.01279e-08
7.15839e-08
7.29696e-08
7.42845e-08
7.55273e-08
7.66963e-08
7.77897e-08
7.88059e-08
7.97411e-08
8.05949e-08
8.1367e-08
8.20568e-08
8.26631e-08
8.31853e-08
8.36229e-08
8.39691e-08
8.42244e-08
8.43928e-08
8.44733e-08
8.44673e-08
8.43762e-08
8.42017e-08
8.39205e-08
8.35501e-08
8.30988e-08
8.25697e-08
8.1936e-08
8.12107e-08
8.04135e-08
7.95337e-08
7.85436e-08
7.749e-08
7.6358e-08
7.5119e-08
7.3827e-08
7.2441e-08
7.09752e-08
6.94631e-08
6.78316e-08
6.61649e-08
6.44081e-08
6.25926e-08
6.07194e-08
5.87668e-08
5.67834e-08
5.49017e-08
5.30035e-08
5.07816e-08
4.85427e-08
4.62473e-08
4.39279e-08
4.15701e-08
3.91845e-08
3.67764e-08
3.43396e-08
3.18932e-08
2.94194e-08
2.69392e-08
2.56919e-08
2.44446e-08
2.3194e-08
2.19372e-08
2.06805e-08
1.94198e-08
1.81509e-08
1.68819e-08
1.56023e-08
1.43138e-08
1.30242e-08
1.17048e-08
1.03854e-08
9.02795e-09
7.66343e-09
6.24168e-09
4.78583e-09
3.27366e-09
2.49522e-09
1.68789e-09
8.58364e-10
0
)


113
(
0
2.37988e-09
4.58637e-09
6.65238e-09
8.61724e-09
1.04969e-08
1.23043e-08
1.40507e-08
1.57454e-08
1.73953e-08
1.90058e-08
2.05806e-08
2.21225e-08
2.36335e-08
2.51149e-08
2.65655e-08
2.79843e-08
2.93748e-08
3.07368e-08
3.20701e-08
3.33741e-08
3.4648e-08
3.58912e-08
3.70979e-08
3.82721e-08
3.94132e-08
4.05201e-08
4.1592e-08
4.26278e-08
4.36267e-08
4.45877e-08
4.551e-08
4.63927e-08
4.72349e-08
4.80358e-08
4.87938e-08
4.95091e-08
5.01814e-08
5.08101e-08
5.13948e-08
5.19348e-08
5.24283e-08
5.28756e-08
5.32767e-08
5.36315e-08
5.39398e-08
5.42014e-08
5.44161e-08
5.45805e-08
5.4695e-08
5.47619e-08
5.47808e-08
5.47525e-08
5.46778e-08
5.45577e-08
5.43794e-08
5.41525e-08
5.38814e-08
5.35679e-08
5.3197e-08
5.27757e-08
5.23148e-08
5.18082e-08
5.12403e-08
5.06368e-08
4.99893e-08
4.92812e-08
4.85428e-08
4.77505e-08
4.69118e-08
4.60461e-08
4.51096e-08
4.41519e-08
4.31395e-08
4.20904e-08
4.10053e-08
3.98686e-08
3.8712e-08
3.74917e-08
3.62599e-08
3.4965e-08
3.36548e-08
3.22936e-08
3.09076e-08
2.94819e-08
2.80212e-08
2.65323e-08
2.49959e-08
2.34438e-08
2.18275e-08
2.01905e-08
1.93478e-08
1.85051e-08
1.76491e-08
1.6769e-08
1.5889e-08
1.49953e-08
1.40734e-08
1.31515e-08
1.22042e-08
1.12353e-08
1.02645e-08
9.24337e-09
8.22226e-09
7.15334e-09
6.07566e-09
4.9413e-09
3.77892e-09
2.57294e-09
1.95411e-09
1.31683e-09
6.66449e-10
0
)


113
(
0
1.3813e-09
2.69063e-09
3.93222e-09
5.11838e-09
6.2523e-09
7.33705e-09
8.37617e-09
9.37321e-09
1.03315e-08
1.12538e-08
1.21425e-08
1.29997e-08
1.38271e-08
1.46261e-08
1.5396e-08
1.61367e-08
1.68524e-08
1.75439e-08
1.82117e-08
1.88565e-08
1.94786e-08
2.00783e-08
2.06528e-08
2.12059e-08
2.17378e-08
2.22487e-08
2.27388e-08
2.32081e-08
2.36566e-08
2.40846e-08
2.4492e-08
2.48789e-08
2.52453e-08
2.55911e-08
2.5916e-08
2.62205e-08
2.65047e-08
2.67686e-08
2.70123e-08
2.72357e-08
2.74381e-08
2.762e-08
2.77814e-08
2.79226e-08
2.80435e-08
2.81441e-08
2.82246e-08
2.82834e-08
2.83209e-08
2.8338e-08
2.83348e-08
2.83114e-08
2.82684e-08
2.8206e-08
2.8119e-08
2.80112e-08
2.78846e-08
2.77398e-08
2.75705e-08
2.73794e-08
2.7171e-08
2.69429e-08
2.66877e-08
2.64168e-08
2.61262e-08
2.58082e-08
2.54764e-08
2.51196e-08
2.47408e-08
2.43492e-08
2.3923e-08
2.34861e-08
2.30215e-08
2.25375e-08
2.20344e-08
2.15025e-08
2.09595e-08
2.03788e-08
1.97911e-08
1.91635e-08
1.85254e-08
1.78526e-08
1.71615e-08
1.64414e-08
1.56937e-08
1.49238e-08
1.41146e-08
1.32922e-08
1.2415e-08
1.15201e-08
1.1052e-08
1.0584e-08
1.0105e-08
9.60639e-09
9.10774e-09
8.59876e-09
8.0684e-09
7.53804e-09
6.99026e-09
6.42765e-09
5.86383e-09
5.2693e-09
4.67477e-09
4.05429e-09
3.42909e-09
2.77643e-09
2.1115e-09
1.42808e-09
1.08002e-09
7.24996e-10
3.65278e-10
0
)


113
(
0
1.20483e-10
2.38026e-10
3.52513e-10
4.64273e-10
5.73253e-10
6.7941e-10
7.82748e-10
8.83303e-10
9.81126e-10
1.07627e-09
1.16878e-09
1.25871e-09
1.34609e-09
1.43094e-09
1.51312e-09
1.59251e-09
1.66945e-09
1.74395e-09
1.81604e-09
1.88571e-09
1.95299e-09
2.01787e-09
2.08e-09
2.13979e-09
2.19725e-09
2.25237e-09
2.30517e-09
2.35565e-09
2.40382e-09
2.44969e-09
2.49325e-09
2.53453e-09
2.57351e-09
2.61022e-09
2.6446e-09
2.67672e-09
2.70661e-09
2.73427e-09
2.75971e-09
2.78293e-09
2.80388e-09
2.8226e-09
2.83911e-09
2.85343e-09
2.86558e-09
2.87555e-09
2.88336e-09
2.88885e-09
2.89208e-09
2.89314e-09
2.89203e-09
2.88878e-09
2.88344e-09
2.87604e-09
2.86602e-09
2.8538e-09
2.83957e-09
2.8234e-09
2.80462e-09
2.7835e-09
2.76055e-09
2.73546e-09
2.70748e-09
2.67779e-09
2.646e-09
2.61123e-09
2.57496e-09
2.53599e-09
2.49462e-09
2.45188e-09
2.40537e-09
2.3577e-09
2.30702e-09
2.25425e-09
2.19941e-09
2.1415e-09
2.08239e-09
2.01929e-09
1.95545e-09
1.88747e-09
1.81844e-09
1.7459e-09
1.67158e-09
1.59442e-09
1.51471e-09
1.43293e-09
1.34769e-09
1.2613e-09
1.1704e-09
1.07816e-09
1.03048e-09
9.82802e-10
9.34363e-10
8.84556e-10
8.34748e-10
7.84286e-10
7.32473e-10
6.80659e-10
6.27845e-10
5.7418e-10
5.20451e-10
4.65121e-10
4.09791e-10
3.53227e-10
2.96439e-10
2.38448e-10
1.79957e-10
1.20729e-10
9.08707e-11
6.07563e-11
3.04749e-11
0
)

)


10
(

113
(
0
2.58098e-18
5.81538e-17
4.93395e-16
2.66404e-15
1.22811e-14
5.1004e-14
1.83377e-13
5.54568e-13
1.4225e-12
3.23404e-12
6.55333e-12
1.20575e-11
2.07385e-11
3.41231e-11
5.66667e-11
9.18e-11
1.41923e-10
2.08833e-10
3.17167e-10
4.65769e-10
6.765e-10
9.70667e-10
1.35385e-09
1.82308e-09
2.5075e-09
3.37333e-09
4.4525e-09
5.775e-09
7.36333e-09
9.29667e-09
1.17891e-08
1.46333e-08
1.825e-08
2.45909e-08
4.00727e-08
8.04364e-08
1.79091e-07
3.9e-07
7.75455e-07
1.26891e-06
1.77e-06
2.08818e-06
2.205e-06
2.13091e-06
1.94909e-06
1.72636e-06
1.51667e-06
1.34167e-06
1.2e-06
1.11538e-06
1.04333e-06
9.89231e-07
9.48286e-07
9.09714e-07
8.63714e-07
8.09571e-07
7.46e-07
6.7e-07
5.91688e-07
5.11062e-07
4.30438e-07
3.52437e-07
2.80562e-07
2.21118e-07
1.67e-07
1.30333e-07
9.61778e-08
7.20667e-08
5.17111e-08
3.69889e-08
2.63e-08
1.83e-08
1.29305e-08
8.68842e-09
6.196e-09
4.141e-09
2.938e-09
1.948e-09
1.38e-09
9.175e-10
6.534e-10
4.389e-10
3.06737e-10
1.95158e-10
1.3657e-10
8.387e-11
5.44e-11
2.91333e-11
1.84667e-11
9.78941e-12
7.77176e-12
5.75412e-12
3.98938e-12
3.23625e-12
2.48313e-12
1.73e-12
1.41733e-12
1.10467e-12
7.92e-13
6.19083e-13
4.46167e-13
3.22455e-13
2.31545e-13
1.54756e-13
9.91444e-14
5.66286e-14
2.62833e-14
9.7e-15
5.275e-15
1.6005e-15
2.2475e-16
0
)


113
(
0
2.9231e-15
2.08728e-14
8.67899e-14
2.64042e-13
6.86417e-13
1.60719e-12
3.43794e-12
6.8222e-12
1.27574e-11
2.25346e-11
3.81594e-11
6.17047e-11
9.6377e-11
1.49764e-10
2.2837e-10
3.41077e-10
5.02277e-10
7.20739e-10
1.05003e-09
1.57352e-09
2.34912e-09
3.53423e-09
5.34208e-09
8.10585e-09
1.27495e-08
2.00389e-08
3.09003e-08
4.64921e-08
6.82209e-08
9.89248e-08
1.40733e-07
1.95407e-07
2.63155e-07
3.44178e-07
4.39185e-07
5.46253e-07
6.62626e-07
7.84613e-07
9.06518e-07
1.02267e-06
1.12831e-06
1.21709e-06
1.28752e-06
1.33464e-06
1.35929e-06
1.36299e-06
1.34702e-06
1.31421e-06
1.2672e-06
1.20768e-06
1.14296e-06
1.07433e-06
1.00374e-06
9.3204e-07
8.61285e-07
7.91452e-07
7.22646e-07
6.56281e-07
5.91459e-07
5.28179e-07
4.68379e-07
4.10447e-07
3.55973e-07
3.05896e-07
2.57703e-07
2.1716e-07
1.78282e-07
1.46058e-07
1.17027e-07
9.27836e-08
7.28192e-08
5.57073e-08
4.27092e-08
3.14743e-08
2.37565e-08
1.6918e-08
1.2468e-08
8.61525e-09
6.21082e-09
4.16849e-09
2.94153e-09
1.91842e-09
1.32219e-09
8.32693e-10
5.78312e-10
3.50055e-10
2.35199e-10
1.38475e-10
9.15493e-11
5.24707e-11
4.20866e-11
3.17025e-11
2.24988e-11
1.80169e-11
1.35349e-11
9.05296e-12
7.14711e-12
5.24126e-12
3.33541e-12
2.51856e-12
1.70171e-12
1.1522e-12
7.80932e-13
4.87294e-13
3.1011e-13