/*--------------------------------*- C++ -*----------------------------------*\
| =========                 |                                                 |
| \\      /  F ield         | OpenFOAM: The Open Source CFD Toolbox           |
|  \\    /   O peration     | Version:  2.3.0                                 |
|   \\  /    A nd           | Web:      www.OpenFOAM.org                      |
|    \\/     M anipulation  |                                                 |
\*---------------------------------------------------------------------------*/
FoamFile
{
    version     2.0;
    format      ascii;
    class       dictionary;
    location    "constant";
    object      he;
}
// * * * * * * * * * * * * * * * * * * * * * * * * * * * * * * * * * * * * * //

he_table
13
(

10
(

113
(
-4190.09
90632.3
185603
281550
376739
472226
568651
663434
758862
854967
949674
1.04368e+06
1.13712e+06
1.23182e+06
1.32722e+06
1.42365e+06
1.52065e+06
1.61672e+06
1.70751e+06
1.79493e+06
1.87936e+06
1.96571e+06
2.05073e+06
2.13137e+06
2.20445e+06
2.27318e+06
2.33784e+06
2.3947e+06
2.44036e+06
2.46997e+06
2.49543e+06
2.5203e+06
2.53418e+06
2.54084e+06
2.53698e+06
2.52822e+06
2.51298e+06
2.4958e+06
2.47858e+06
2.46215e+06
2.44013e+06
2.41641e+06
2.39864e+06
2.37394e+06
2.3426e+06
2.31982e+06
2.29747e+06
2.26546e+06
2.2376e+06
2.21858e+06
2.19591e+06
2.16913e+06
2.14815e+06
2.13103e+06
2.1137e+06
2.09626e+06
2.07329e+06
2.04806e+06
2.03026e+06
2.01579e+06
1.99996e+06
1.98328e+06
1.96698e+06
1.95101e+06
1.93562e+06
1.92119e+06
1.90514e+06
1.88339e+06
1.86163e+06
1.83981e+06
1.81798e+06
1.79666e+06
1.77544e+06
1.74489e+06
1.70886e+06
1.66659e+06
1.61535e+06
1.56405e+06
1.51247e+06
1.46089e+06
1.39555e+06
1.32885e+06
1.26145e+06
1.19365e+06
1.12549e+06
1.05673e+06
987887
918518
849148
777895
706583
671347
636244
601141
566038
529924
493618
457311
421249
385813
350378
314928
279370
243812
208349
173009
137503
101573
65972.6
48277
30803.3
12463.7
-4973.43
)


113
(
-4190.09
90807.7
186573
281485
376873
472325
567752
663062
758259
853349
948196
1.04283e+06
1.13729e+06
1.23106e+06
1.32432e+06
1.41682e+06
1.50764e+06
1.5975e+06
1.68471e+06
1.7696e+06
1.85242e+06
1.93007e+06
2.0053e+06
2.07532e+06
2.14002e+06
2.20156e+06
2.25392e+06
2.30216e+06
2.34449e+06
2.37859e+06
2.40855e+06
2.43065e+06
2.44705e+06
2.45964e+06
2.46406e+06
2.4654e+06
2.46267e+06
2.45491e+06
2.44502e+06
2.43177e+06
2.41604e+06
2.39889e+06
2.37947e+06
2.35914e+06
2.33794e+06
2.3159e+06
2.29365e+06
2.27099e+06
2.24837e+06
2.22587e+06
2.20366e+06
2.18177e+06
2.16032e+06
2.13918e+06
2.11866e+06
2.09844e+06
2.07883e+06
2.05947e+06
2.04054e+06
2.02181e+06
2.00329e+06
1.9849e+06
1.96634e+06
1.94762e+06
1.92846e+06
1.90858e+06
1.88819e+06
1.86601e+06
1.84369e+06
1.81786e+06
1.79204e+06
1.76189e+06
1.73092e+06
1.69589e+06
1.65847e+06
1.61805e+06
1.57333e+06
1.52737e+06
1.47535e+06
1.42333e+06
1.36544e+06
1.30698e+06
1.24532e+06
1.18187e+06
1.11714e+06
1.05034e+06
983230
914396
845562
775564
705530
670243
634872
599500
564128
528607
493058
457508
421945
386347
350749
315153
279576
243998
208446
172925
137401
101869
66202.2
48342.7
30583.9
13060.1
-4973.43
)


113
(
-4190.09
92329.2
186016
280840
375579
470364
566564
660119
752700
844550
934626
1.02379e+06
1.11224e+06
1.19825e+06
1.283e+06
1.36594e+06
1.44588e+06
1.52431e+06
1.59901e+06
1.671e+06
1.74056e+06
1.805e+06
1.86731e+06
1.92517e+06
1.9789e+06
2.03018e+06
2.07505e+06
2.11723e+06
2.1555e+06
2.18854e+06
2.21892e+06
2.24422e+06
2.26582e+06
2.28494e+06
2.29843e+06
2.30966e+06
2.31787e+06
2.322e+06
2.32423e+06
2.32324e+06
2.31976e+06
2.31477e+06
2.30686e+06
2.29747e+06
2.28665e+06
2.27383e+06
2.26039e+06
2.24506e+06
2.22922e+06
2.21229e+06
2.19479e+06
2.17664e+06
2.15783e+06
2.13859e+06
2.11879e+06
2.09872e+06
2.07805e+06
2.05714e+06
2.03559e+06
2.01375e+06
1.99122e+06
1.96827e+06
1.94454e+06
1.9201e+06
1.89493e+06
1.86858e+06
1.84169e+06
1.81285e+06
1.7839e+06
1.75216e+06
1.72043e+06
1.68573e+06
1.65046e+06
1.61266e+06
1.57338e+06
1.53236e+06
1.48884e+06
1.44455e+06
1.39649e+06
1.34844e+06
1.29631e+06
1.24378e+06
1.18856e+06
1.13183e+06
1.07367e+06
1.01319e+06
952235
888646
825056
759249
693374
659738
625881
592024
558168
523763
489254
454746
419961
384469
348976
313513
278271
243029
207731
172361
137030
101797
67003.1
49736
32660.9
15122.1
-4973.43
)


113
(
-4190.09
95771
184632
273544
362742
451566
539419
625711
710662
794373
875670
955303
1.03363e+06
1.11157e+06
1.18705e+06
1.25899e+06
1.32764e+06
1.39464e+06
1.45759e+06
1.51792e+06
1.57592e+06
1.62976e+06
1.68217e+06
1.73183e+06
1.77816e+06
1.82252e+06
1.86244e+06
1.90062e+06
1.93631e+06
1.96825e+06
1.99839e+06
2.02521e+06
2.04945e+06
2.07193e+06
2.09037e+06
2.10715e+06
2.12175e+06
2.13319e+06
2.1431e+06
2.15041e+06
2.15542e+06
2.15904e+06
2.16006e+06
2.15946e+06
2.15731e+06
2.15278e+06
2.14748e+06
2.13964e+06
2.13096e+06
2.12048e+06
2.10882e+06
2.09583e+06
2.08138e+06
2.06597e+06
2.04901e+06
2.03132e+06
2.01198e+06
1.99196e+06
1.97049e+06
1.94836e+06
1.92484e+06
1.90047e+06
1.87489e+06
1.84819e+06
1.82053e+06
1.79129e+06
1.76158e+06
1.73021e+06
1.69873e+06
1.66447e+06
1.6302e+06
1.59402e+06
1.55746e+06
1.51882e+06
1.47896e+06
1.43801e+06
1.39548e+06
1.35244e+06
1.3069e+06
1.26136e+06
1.21268e+06
1.16367e+06
1.11307e+06
1.06157e+06
1.0084e+06
952532
896178
837084
777990
717439
656842
625694
594277
562860
531444
499245
466898
434551
402005
368946
335888
302783
269337
235891
202479
169109
135819
102737
69388.3
52570.5
34892.1
16172
-4973.43
)


113
(
-4190.09
93491.6
176973
256109
333928
410983
487185
562031
635623
708034
778080
846519
913694
977771
1.04052e+06
1.10134e+06
1.15947e+06
1.21634e+06
1.27035e+06
1.3225e+06
1.37301e+06
1.42036e+06
1.46643e+06
1.50991e+06
1.55253e+06
1.59461e+06
1.63393e+06
1.671e+06
1.70483e+06
1.73595e+06
1.76554e+06
1.79191e+06
1.81638e+06
1.83954e+06
1.85919e+06
1.87741e+06
1.89373e+06
1.9077e+06
1.92044e+06
1.93096e+06
1.93956e+06
1.94694e+06
1.95169e+06
1.95516e+06
1.95741e+06
1.95726e+06
1.95637e+06
1.95311e+06
1.94897e+06
1.94294e+06
1.93563e+06
1.92688e+06
1.91656e+06
1.90519e+06
1.89205e+06
1.87808e+06
1.86235e+06
1.84591e+06
1.82752e+06
1.80826e+06
1.78736e+06
1.76546e+06
1.74214e+06
1.71752e+06
1.69202e+06
1.66507e+06
1.6376e+06
1.60825e+06
1.57879e+06
1.54632e+06
1.51385e+06
1.4783e+06
1.44215e+06
1.40495e+06
1.36713e+06
1.32742e+06
1.28497e+06
1.24245e+06
1.19958e+06
1.15671e+06
1.11149e+06
1.06604e+06
1.01895e+06
970940
921980
871473
820604
767693
714783
659693
604537
576206
547638
519069
490501
461285
431946
402607
373137
343328
313519
283686
253667
223649
193512
163223
132685
101503
69052.5
52391.9
34480.7
15620
-4973.43
)


113
(
-4190.09
83553.9
159192
228434
294482
358511
420991
482050
542075
601177
658561
714776
770073
823069
875055
925588
974055
1.02155e+06
1.06685e+06
1.11071e+06
1.15332e+06
1.19349e+06
1.2327e+06
1.26993e+06
1.30545e+06
1.33996e+06
1.3719e+06
1.40278e+06
1.43213e+06
1.45944e+06
1.48571e+06
1.51001e+06
1.5328e+06
1.55456e+06
1.57299e+06
1.59081e+06
1.6078e+06
1.62284e+06
1.63691e+06
1.64934e+06
1.66024e+06
1.67021e+06
1.67827e+06
1.69258e+06
1.71288e+06
1.72267e+06
1.72997e+06
1.73327e+06
1.73494e+06
1.73318e+06
1.72939e+06
1.72333e+06
1.71476e+06
1.70451e+06
1.69114e+06
1.6763e+06
1.64901e+06
1.61663e+06
1.59589e+06
1.58037e+06
1.56326e+06
1.54519e+06
1.5258e+06
1.50519e+06
1.48361e+06
1.46048e+06
1.43714e+06
1.4131e+06
1.38889e+06
1.36047e+06
1.33204e+06
1.30164e+06
1.27086e+06
1.2386e+06
1.20548e+06
1.1714e+06
1.13594e+06
1.10008e+06
1.0623e+06
1.02452e+06
984640
944557
903036
860706
817560
773084
728309
681848
635387
587242
539046
514411
489607
464804
440000
414735
389382
364029
338538
312689
286840
260910
234393
207876
180861
153212
125063
95628.6
64663.5
48691.3
31621.2
13874.5
-4973.43
)


113
(
-4190.09
67778.7
131617
189773
244336
296262
345996
393834
440484
486138
530241
573444
615941
656829
697044
736291
774187
811449
847270
882153
916207
948652
979167
1.0047e+06
1.03157e+06
1.05916e+06
1.08485e+06
1.10974e+06
1.13349e+06
1.1557e+06
1.17711e+06
1.19701e+06
1.21575e+06
1.23369e+06
1.24978e+06
1.26506e+06
1.27926e+06
1.29188e+06
1.30371e+06
1.31419e+06
1.32341e+06
1.33184e+06
1.33865e+06
1.3445e+06
1.34944e+06
1.35275e+06
1.35554e+06
1.35656e+06
1.35694e+06
1.35594e+06
1.35398e+06
1.35094e+06
1.34666e+06
1.34155e+06
1.33502e+06
1.32783e+06
1.31913e+06
1.30982e+06
1.29902e+06
1.28757e+06
1.27478e+06
1.26117e+06
1.24644e+06
1.23067e+06
1.21408e+06
1.19615e+06
1.17776e+06
1.15769e+06
1.13753e+06
1.11534e+06
1.09314e+06
1.06918e+06
1.04488e+06
1.01929e+06
992923
965730
937341
909059
881297
853536
821098
788198
754229
719658
684490
648347
611984
574381
536778
497853
458887
438896
418744
398593
378441
357676
336793
315911
294774
272983
251193
229257
206258
183259
159566
134992
109895
83454.5
55749.1
41504.6
26499.1
11079.1
-4973.43
)


113
(
-4190.09
47776.6
95416.9
139417
180718
219792
256816
291904
325742
358524
389687
419963
449544
477660
505211
531949
557630
582826
606953
630409
653271
675006
696293
716659
736232
755335
773223
790602
807248
822902
838046
852208
865608
878496
890159
901285
911698
921051
929878
937793
944849
951367
956779
961530
965648
968640
971266
972663
973604
973578
972872
971400
969049
966112
962162
957734
952229
946284
939278
931794
923349
914314
904471
893880
882699
870554
858071
844385
830638
815426
800215
783742
767029
749388
731201
712421
692788
672913
651856
630799
608464
586002
562650
538798
514416
489170
463709
437031
410354
382200
354001
339262
324321
309381
294440
278695
262796
246898
230689
213683
196677
179519
161248
142977
124103
104461
84437.6
63431.9
41629.8
30486.4
18915.2
7128.69
-4973.43
)


113
(
-4190.09
24425
51474.7
77029.6
101345
124542
146623
167550
187681
207127
225465
243173
260387
276543
292293
307456
321870
335945
349282
362172
374666
386436
397924
408841
419284
429445
438900
448068
456823
465031
472962
480363
487361
494088
500176
505987
511431
516333
520969
525143
528884
532355
535271
537857
540126
541833
543358
544268
544951
545151
545011
544487
543523
542264
540494
538483
535927
533147
529825
526260
522198
517833
513045
507867
502376
496374
490189
483354
476484
468803
461122
452718
444177
435084
425667
415879
405560
395081
383824
372566
360412
348169
335258
321973
308265
293869
279294
263705
248116
231280
214405
205444
196317
187189
178062
168323
158467
148611
138544
127934
117324
106624
95262
83899.8
72225.1
60152.9
47906.9
35214.2
22196.5
15590
8822.79
1979.17
-4973.43
)


113
(
-4190.09
-1692.15
745.281
3119.23
5435.63
7696.25
9896.95
12029.8
14112.4
16150.6
18111.2
20024.2
21899.8
23689.3
25443.5
27146.8
28781.4
30384.3
31916
33403.1
34850.4
36222.6
37565.1
38846.7
40076.7
41276
42397.2
43486.1
44528.6
45509.1
46458.1
47346.6
48188.7
48999.7
49736.9
50442.2
51105
51705.1
52274.4
52790
53255.4
53689.4
54059
54390.2
54684.6
54913.6
55121.4
55257.6
55367.3
55420.7
55434.2
55402.9
55319.7
55202.1
55024.3
54818
54547.2
54249.9
53888
53497.1
53046.7
52560
52022.3
51437.6
50814.9
50130.2
49423.1
48636.7
47846.2
46956.2
46066.3
45087.9
44092.6
43030
41927.7
40780.7
39569.2
38338.9
37015.8
35692.7
34265.7
32828.5
31316.9
29763.6
28165.7
26495.2
24807.1
23019.3
21231.5
19331.3
17427.7
16433.3
15425.5
14417.7
13409.8
12357.7
11297.1
10236.5
9162.35
8053.45
6944.56
5830.54
4678.94
3527.35
2359.95
1172.43
-23.0465
-1238.98
-2468.63
-3087.55
-3712.86
-4341.1
-4973.43
)

)


10
(

113
(
-4190.12
89069.5
182532
276121
369797
463527
557292
651033
744673
838102
931315
1.02408e+06
1.11623e+06
1.20765e+06
1.2981e+06
1.38733e+06
1.47481e+06
1.56038e+06
1.64369e+06
1.7244e+06
1.80211e+06
1.87639e+06
1.94693e+06
2.01252e+06
2.07331e+06
2.12911e+06
2.17968e+06
2.22475e+06
2.26418e+06
2.29803e+06
2.32634e+06
2.34918e+06
2.36697e+06
2.37986e+06
2.38848e+06
2.39313e+06
2.39441e+06
2.39274e+06
2.38873e+06
2.38243e+06
2.37404e+06
2.36319e+06
2.34964e+06
2.33376e+06
2.3159e+06
2.29629e+06
2.27537e+06
2.25355e+06
2.23099e+06
2.20795e+06
2.18466e+06
2.16118e+06
2.13739e+06
2.11328e+06
2.08893e+06
2.06402e+06
2.03854e+06
2.01228e+06
1.98511e+06
1.95649e+06
1.92632e+06
1.8947e+06
1.86121e+06
1.8251e+06
1.78741e+06
1.74775e+06
1.70562e+06
1.66237e+06
1.61721e+06
1.57084e+06
1.52376e+06
1.47535e+06
1.42663e+06
1.37714e+06
1.32732e+06
1.27716e+06
1.22668e+06
1.17608e+06
1.12521e+06
1.07429e+06
1.02314e+06
971965
920710
869429
818105
766745
715356
663921
612471
560981
509493
483751
458008
432268
406532
380797
355064
329338
303613
277882
252146
226412
200711
175010
149308
123606
97900
72191.9
46492.5
33650.7
20768.5
7915.91
-4975.44
)


113
(
-4190.12
89160.4
182987
276312
369805
463377
556876
650195
743221
835828
927866
1.01916e+06
1.10953e+06
1.19877e+06
1.28664e+06
1.37277e+06
1.45669e+06
1.5383e+06
1.61732e+06
1.69346e+06
1.76641e+06
1.83587e+06
1.90157e+06
1.96255e+06
2.01929e+06
2.07157e+06
2.11928e+06
2.16237e+06
2.20076e+06
2.23448e+06
2.26361e+06
2.28822e+06
2.30851e+06
2.32465e+06
2.3368e+06
2.3452e+06
2.3501e+06
2.35178e+06
2.35053e+06
2.34651e+06
2.33991e+06
2.33097e+06
2.31988e+06
2.30682e+06
2.29205e+06
2.27573e+06
2.258e+06
2.23901e+06
2.21883e+06
2.19759e+06
2.17542e+06
2.1524e+06
2.12855e+06
2.10392e+06
2.0785e+06
2.05204e+06
2.02463e+06
1.9963e+06
1.96704e+06
1.9364e+06
1.90444e+06
1.87138e+06
1.83702e+06
1.80082e+06
1.76353e+06
1.7249e+06
1.68443e+06
1.64307e+06
1.60016e+06
1.55604e+06
1.51121e+06
1.46478e+06
1.41794e+06
1.37006e+06
1.32164e+06
1.27267e+06
1.22312e+06
1.17334e+06
1.12302e+06
1.07263e+06
1.02186e+06
971032
919999
868900
817694
766423
715102
663730
612341
560910
509472
483746
458019
432292
406562
380832
355103
329376
303648
277923
252200
226477
200765
175054
149363
123677
98040.4
72286.8
46475.7
33616.6
20770.4
8091.24
-4975.44
)


113
(
-4190.12
90329.8
182151
274837
367240
459644
552198
642871
732208
820276
906693
991601
1.07503e+06
1.15676e+06
1.23657e+06
1.31412e+06
1.389e+06
1.46134e+06
1.53098e+06
1.59778e+06
1.6616e+06
1.72232e+06
1.77981e+06
1.83346e+06
1.88375e+06
1.9306e+06
1.97399e+06
2.0139e+06
2.05033e+06
2.0833e+06
2.11279e+06
2.13892e+06
2.16172e+06
2.1812e+06
2.19758e+06
2.21075e+06
2.22097e+06
2.2284e+06
2.23309e+06
2.23524e+06
2.23489e+06
2.23208e+06
2.22703e+06
2.21987e+06
2.21064e+06
2.19956e+06
2.18667e+06
2.17203e+06
2.15571e+06
2.13771e+06
2.11825e+06
2.09737e+06
2.07514e+06
2.05161e+06
2.02689e+06
2.00065e+06
1.97319e+06
1.94465e+06
1.91508e+06
1.88413e+06
1.852e+06
1.81894e+06
1.78482e+06
1.74932e+06
1.713e+06
1.6757e+06
1.63708e+06
1.59779e+06
1.55736e+06
1.51597e+06
1.47403e+06
1.4307e+06
1.38697e+06
1.34222e+06
1.29685e+06
1.25087e+06
1.20407e+06
1.15695e+06
1.10895e+06
1.06079e+06
1.01186e+06
962780
913186
863390
813271
762936
712429
661696
610889
559966
509044
483587
458129
432639
407087
381535
355914
330146
304379
278471
252443
226426
200723
175019
149311
123602
97940
72401.9
47148.9
34674.2
22319.4
9631.33
-4975.44
)


113
(
-4190.12
93273.1
179415
265646
352008
437783
522428
605632
687218
767072
845103
921229
996161
1.07014e+06
1.14188e+06
1.2102e+06
1.27574e+06
1.33865e+06
1.39841e+06
1.45564e+06
1.51057e+06
1.56247e+06
1.61189e+06
1.65839e+06
1.70258e+06
1.744e+06
1.78274e+06
1.81897e+06
1.85259e+06
1.88351e+06
1.91186e+06
1.93764e+06
1.96091e+06
1.98157e+06
1.99977e+06
2.01546e+06
2.02874e+06
2.03962e+06
2.04822e+06
2.05463e+06
2.05877e+06
2.06076e+06
2.0606e+06
2.05841e+06
2.0543e+06
2.04819e+06
2.04028e+06
2.03061e+06
2.01903e+06
2.00571e+06
1.99075e+06
1.97424e+06
1.95619e+06
1.93668e+06
1.9158e+06
1.89327e+06
1.86936e+06
1.84425e+06
1.81799e+06
1.79027e+06
1.76129e+06
1.73135e+06
1.70032e+06
1.66789e+06
1.63466e+06
1.60046e+06
1.56497e+06
1.52887e+06
1.49167e+06
1.45355e+06
1.41489e+06
1.37493e+06
1.3346e+06
1.29328e+06
1.25135e+06
1.20882e+06
1.16537e+06
1.12155e+06
1.07691e+06
1.03211e+06
986165
940093
893583
846605
798882
750450
701449
651624
601524
551944
502246
477251
452256
427201
402039
376877
351673
326384
301094
275767
250407
225048
199725
174402
149257
124146
99369.9
74697.5
50000
37524.7
24515.4
10667.7
-4975.44
)


113
(
-4190.12
90635.9
171093
247427
322454
396653
469931
542033
612711
681784
749130
814670
878353
940137
999994
1.05775e+06
1.11327e+06
1.16678e+06
1.21826e+06
1.2677e+06
1.31509e+06
1.36041e+06
1.40364e+06
1.44446e+06
1.48403e+06
1.52369e+06
1.5614e+06
1.59579e+06
1.62718e+06
1.65625e+06
1.68272e+06
1.70629e+06
1.72864e+06
1.74873e+06
1.76662e+06
1.78179e+06
1.79564e+06
1.80751e+06
1.81705e+06
1.82512e+06
1.83135e+06
1.83576e+06
1.83809e+06
1.83899e+06
1.83817e+06
1.83569e+06
1.83158e+06
1.82588e+06
1.81859e+06
1.80972e+06
1.79933e+06
1.78751e+06
1.77431e+06
1.75977e+06
1.74393e+06
1.72649e+06
1.70783e+06
1.68799e+06
1.66699e+06
1.64448e+06
1.62088e+06
1.5963e+06
1.57048e+06
1.54317e+06
1.51519e+06
1.48644e+06
1.45597e+06
1.4249e+06
1.39302e+06
1.35977e+06
1.32572e+06
1.29009e+06
1.25382e+06
1.21585e+06
1.17701e+06
1.13732e+06
1.09708e+06
1.05664e+06
1.0158e+06
974837
932764
890433
847241
803650
759425
714676
669505
623697
577677
530918
483972
460281
436590
412821
388908
364996
341050
317033
293016
269016
245029
221046
197182
173317
149516
125725
101738
77397.5
52272.8
39285.8
25507.6
10918.1
-4975.44
)


113
(
-4190.12
80498.2
153058
219455
282753
344017
403777
462267
519555
575624
630427
683907
736010
786687
835896
883489
929341
973623
1.01633e+06
1.05744e+06
1.09694e+06
1.13484e+06
1.17112e+06
1.20554e+06
1.23835e+06
1.26957e+06
1.29919e+06
1.32723e+06
1.35368e+06
1.37855e+06
1.40186e+06
1.4236e+06
1.44381e+06
1.46241e+06
1.4782e+06
1.49378e+06
1.50787e+06
1.52052e+06
1.53174e+06
1.54155e+06
1.54998e+06
1.55701e+06
1.56269e+06
1.56969e+06
1.59143e+06
1.5985e+06
1.60199e+06
1.60344e+06
1.60173e+06
1.59779e+06
1.5916e+06
1.5832e+06
1.57277e+06
1.56041e+06
1.54611e+06
1.5287e+06
1.50926e+06
1.48126e+06
1.4468e+06
1.42959e+06
1.41122e+06
1.39196e+06
1.37166e+06
1.35001e+06
1.32759e+06
1.30421e+06
1.28169e+06
1.25817e+06
1.23136e+06
1.20363e+06
1.17538e+06
1.14572e+06
1.11566e+06
1.08452e+06
1.05267e+06
1.02012e+06
986568
952629
917462
882073
845481
808602
770770
732490
693497
653919
613870
573126
532150
490416
448503
427342
406180
384947
363584
342220
320810
299302
277795
256202
234538
212862
190916
168970
146568
124079
100711
76702.9
51556.4
38486.5
24694
10288.1
-4975.44
)


113
(
-4190.12
64537.2
125220
180424
232176
281296
328346
373731
417720
460489
502144
542748
582338
620929
658526
695055
730443
764809
798142
830433
861673
891851
920957
942084
967120
991814
1.01535e+06
1.03772e+06
1.05892e+06
1.07895e+06
1.09782e+06
1.11551e+06
1.13204e+06
1.1474e+06
1.16159e+06
1.17461e+06
1.18648e+06
1.19721e+06
1.20683e+06
1.21532e+06
1.2227e+06
1.22895e+06
1.23409e+06
1.23814e+06
1.24112e+06
1.24303e+06
1.2439e+06
1.24373e+06
1.24245e+06
1.24011e+06
1.23675e+06
1.23239e+06
1.22704e+06
1.22075e+06
1.21353e+06
1.20515e+06
1.1958e+06
1.18558e+06
1.17453e+06
1.16237e+06
1.14924e+06
1.13536e+06
1.12061e+06
1.10471e+06
1.08814e+06
1.07075e+06
1.05223e+06
1.03316e+06
1.01308e+06
992158
970737
948017
924909
900800
876023
850588
824217
797482
772326
746965
717181
687159
656346
625159
593381
561111
528444
495172
461697
427486
393057
375591
358124
340524
322680
304837
286848
268561
250273
231678
212822
193937
174334
154730
134314
113746
92046.4
69703.4
46310.4
34204.4
21578.2
8556.46
-4975.44
)


113
(
-4190.12
44661.7
89306.7
130476
169092
205512
240029
272903
304354
334554
363637
391702
418830
445077
470489
495045
518731
541666
563862
585326
606064
626079
645367
663820
681555
698569
714859
730422
745253
759351
772711
785332
797210
808344
818732
828357
837236
845376
852778
859442
865371
870542
874971
878668
881640
883889
885420
886241
886303
885623
884240
882155
879384
875944
871853
866935
861331
855106
848288
840673
832362
823504
814020
803697
792890
781484
769256
756619
743251
729256
714898
699582
683979
667635
650794
633464
615430
597123
577940
558597
538378
517942
496787
475274
453192
430596
407585
383862
359901
334953
309678
296660
283642
270411
256793
243176
229338
215043
200748
186038
170976
155881
139963
124045
107343
90498.5
72724.8
54492.7
35547
25815.2
15781.7
5534.34
-4975.44
)


113
(
-4190.12
22223
47147.2
70669
93042.2
114333
134604
153929
172383
190034
206941
223155
238721
253672
268041
281816
294996
307669
319853
331562
342808
353602
363953
373805
383239
392260
400873
409085
416898
424316
431344
437984
444239
450112
455605
460712
465445
469808
473803
477433
480698
483590
486116
488282
490090
491542
492641
493390
493764
493770
493428
492737
491704
490336
488642
486531
484073
481299
478222
474736
470889
466757
462297
457394
452231
446747
440813
434654
428088
421164
414033
406340
398475
390160
381531
372595
363194
353613
343423
333119
322171
311054
299375
287400
274954
262060
248805
234909
220799
205792
190495
182509
174523
166357
157867
149377
140716
131702
122688
113386
103838
94270.2
84192.5
74114.7
63605.5
53017.7
41972.4
30722.5
19164.2
13279
7277.44
1197.48
-4975.44
)


113
(
-4190.12
-1928.95
276.427
2423.85
4519.52
6562.48
8551.92
10487.9
12371.2
14202.7
15983.4
17714.4
19396.3
21030
22615.9
24151.3
25633.9
27070
28460.2
29804.6
31103.5
32357.1
33565.3
34721.8
35834
36902.1
37926.2
38906.5
39843.1
40736.1
41585.6
42391.8
43154.8
43874.7
44551.7
45184.9
45775.6
46324.3
46831
47296
47719.3
48099.9
48438.5
48735.6
48991.8
49206.9
49381.3
49515.1
49605.6
49653.4
49660.6
49627.1
49553.6
49440.9
49289.7
49089.3
48847.7
48568.5
48253.2
47888.7
47480.8
47038.4
46556.3
46019.9
45451.7
44844.1
44181.1
43490
42748.4
41962.3
41150.3
40268.2
39364.4
38404.5
37405.6
36368.3
35273.5
34156.5
32965.3
31760.3
30478.1
29176.4
27809.4
26409.3
24956.5
23456
21917.2
20314.1
18689.6
16981.4
15248.2
14352.6
13457
12547.4
11612.3
10677.2
9729.98
8757.65
7785.32
6794.43
5787.73
4779.86
3742.28
2704.7
1644.22
579.577
-507.368
-1603.59
-2713.49
-3272.97
-3837.2
-4404.53
-4975.44
)

)


10
(

113
(
-4190.09
88015.5
181707
274280
367370
460317
553237
646518
739416
828277
924610
1.01919e+06
1.10755e+06
1.19524e+06
1.27016e+06
1.35935e+06
1.43953e+06
1.51417e+06
1.59265e+06
1.66743e+06
1.72727e+06
1.78959e+06
1.85495e+06
1.91736e+06
1.96625e+06
2.00905e+06
2.05064e+06
2.09288e+06
2.13209e+06
2.16209e+06
2.1919e+06
2.21343e+06
2.24231e+06
2.25617e+06
2.26556e+06
2.28051e+06
2.28734e+06
2.30483e+06
2.30644e+06
2.31283e+06
2.30483e+06
2.30435e+06
2.29832e+06
2.29052e+06
2.27186e+06
2.25846e+06
2.23683e+06
2.20893e+06
2.19056e+06
2.15892e+06
2.14374e+06
2.11843e+06
2.083e+06
2.0456e+06
2.02338e+06
1.98991e+06
1.95353e+06
1.91704e+06
1.88397e+06
1.84658e+06
1.80487e+06
1.76316e+06
1.72124e+06
1.67881e+06
1.63798e+06
1.59785e+06
1.55959e+06
1.51949e+06
1.472e+06
1.42408e+06
1.3755e+06
1.32868e+06
1.28302e+06
1.23717e+06
1.19124e+06
1.14666e+06
1.10242e+06
1.05837e+06
1.01436e+06
966943
918668
872935
827837
780582
732788
687587
642674
594671
546597
500967
455217
432202
409188
386188
363245
340303
317361
295297
273233
251170
226172
201174
177642
155086
132343
109316
85762.2
62557.7
42157.6
31546.4
19130.1
7639.65
-4973.43
)


113
(
-4190.09
88570.8
181762
274397
367187
459965
552535
644726
736345
827114
916791
1.00503e+06
1.09165e+06
1.1764e+06
1.25866e+06
1.33842e+06
1.4156e+06
1.49e+06
1.56183e+06
1.63012e+06
1.69463e+06
1.75612e+06
1.81413e+06
1.86863e+06
1.91946e+06
1.96612e+06
2.00921e+06
2.04882e+06
2.08499e+06
2.11774e+06
2.14679e+06
2.17236e+06
2.19457e+06
2.21374e+06
2.23002e+06
2.24326e+06
2.25345e+06
2.26075e+06
2.26522e+06
2.2666e+06
2.26532e+06
2.26134e+06
2.25449e+06
2.24519e+06
2.23328e+06
2.21903e+06
2.20247e+06
2.18368e+06
2.16297e+06
2.14038e+06
2.11563e+06
2.08927e+06
2.06136e+06
2.03219e+06
2.00139e+06
1.96911e+06
1.93579e+06
1.90146e+06
1.86555e+06
1.8288e+06
1.79123e+06
1.75244e+06
1.7131e+06
1.67282e+06
1.6317e+06
1.59021e+06
1.54761e+06
1.50482e+06
1.46123e+06
1.41732e+06
1.37296e+06
1.32826e+06
1.28334e+06
1.23816e+06
1.19286e+06
1.14736e+06
1.10181e+06
1.05611e+06
1.01038e+06
964489
918552
872457
826323
780058
733761
687398
641029
594676
548338
502100
455897
432836
409775
386715
363660
340605
317550
294453
271355
248258
225119
201981
178881
155807
132800
109894
87122.1
64393.1
41473.2
30085.7
18711.6
7446.16
-4973.43
)


113
(
-4190.09
89473.5
180270
271789
362821
453072
544118
633223
719239
804078
887205
968571
1.04822e+06
1.12574e+06
1.20094e+06
1.27358e+06
1.34391e+06
1.41165e+06
1.47686e+06
1.53907e+06
1.59778e+06
1.65406e+06
1.7074e+06
1.75763e+06
1.80484e+06
1.84852e+06
1.8893e+06
1.92703e+06
1.96173e+06
1.99365e+06
2.02224e+06
2.04764e+06
2.07012e+06
2.08976e+06
2.1066e+06
2.12063e+06
2.13208e+06
2.14058e+06
2.14643e+06
2.14963e+06
2.15022e+06
2.14862e+06
2.14443e+06
2.13805e+06
2.12935e+06
2.11854e+06
2.10566e+06
2.09073e+06
2.07396e+06
2.05532e+06
2.03476e+06
2.01245e+06
1.9884e+06
1.96303e+06
1.93637e+06
1.90775e+06
1.87805e+06
1.84748e+06
1.81467e+06
1.78126e+06
1.74723e+06
1.71139e+06
1.67501e+06
1.63783e+06
1.59954e+06
1.56078e+06
1.52084e+06
1.48066e+06
1.43953e+06
1.39805e+06
1.35602e+06
1.31342e+06
1.27044e+06
1.22695e+06
1.18325e+06
1.13905e+06
1.09473e+06
1.05001e+06
1.0052e+06
960016
914742
869235
823670
777948
732186
686282
640361
594384
548393
502334
456325
433380
410435
387485
364511
341537
318563
295340
272117
248895
225661
202428
179338
156344
133366
110410
87515.6
64724.3
42180.4
31100
19985.9
8464.71
-4973.43
)


113
(
-4190.09
91509.9
176052
260397
344721
428284
510522
591134
669974
746962
822073
895175
966982
1.0382e+06
1.10611e+06
1.17145e+06
1.23393e+06
1.29348e+06
1.35055e+06
1.40493e+06
1.45628e+06
1.50575e+06
1.55266e+06
1.5967e+06
1.63848e+06
1.67772e+06
1.71429e+06
1.74822e+06
1.77984e+06
1.80951e+06
1.83628e+06
1.8601e+06
1.8818e+06
1.90127e+06
1.91846e+06
1.93316e+06
1.94536e+06
1.9553e+06
1.96323e+06
1.96909e+06
1.97224e+06
1.97349e+06
1.97266e+06
1.96989e+06
1.96507e+06
1.95835e+06
1.94969e+06
1.93919e+06
1.92705e+06
1.91303e+06
1.8975e+06
1.88025e+06
1.86155e+06
1.84158e+06
1.81941e+06
1.79587e+06
1.77142e+06
1.74612e+06
1.71864e+06
1.6902e+06
1.66078e+06
1.63019e+06
1.5989e+06
1.56626e+06
1.53241e+06
1.49804e+06
1.46267e+06
1.4269e+06
1.38957e+06
1.35191e+06
1.31375e+06
1.27474e+06
1.23517e+06
1.19511e+06
1.15484e+06
1.11349e+06
1.07186e+06
1.02979e+06
987599
944836
901930
858283
814451
770327
726129
681394
636599
590453
544252
498900
453491
430719
407948
385162
362322
339482
316642
293763
270883
248003
225133
202264
179461
156703
134051
111555
89247.9
67074.5
44937.3
33521.1
21842.5
9236.22
-4973.43
)


113
(
-4190.09
88172.9
166619
240937
313851
385843
456834
526570
594820
661428
726330
789394
850660
910050
967214
1.02237e+06
1.07556e+06
1.12675e+06
1.17615e+06
1.22323e+06
1.26799e+06
1.31094e+06
1.35186e+06
1.39083e+06
1.42798e+06
1.46509e+06
1.50088e+06
1.53368e+06
1.56305e+06
1.5898e+06
1.61439e+06
1.63767e+06
1.6574e+06
1.67539e+06
1.69175e+06
1.706e+06
1.71861e+06
1.72923e+06
1.73776e+06
1.74445e+06
1.74944e+06
1.75267e+06
1.75429e+06
1.75416e+06
1.75223e+06
1.74893e+06
1.74414e+06
1.7376e+06
1.72946e+06
1.71989e+06
1.70905e+06
1.69682e+06
1.68314e+06
1.66825e+06
1.65186e+06
1.63393e+06
1.61505e+06
1.59532e+06
1.57411e+06
1.55185e+06
1.52855e+06
1.50351e+06
1.47774e+06
1.45074e+06
1.42321e+06
1.39544e+06
1.36543e+06
1.33499e+06
1.30282e+06
1.27024e+06
1.23703e+06
1.20265e+06
1.1675e+06
1.13139e+06
1.09486e+06
1.05635e+06
1.01734e+06
978791
940360
901070
861565
821285
780812
739659
698336
656332
614251
571582
528794
485524
442128
420282
398437
376566
354594
332621
310649
288665
266680
244695
222818
200941
179160
157442
135748
114088
92266.8
70170.6
47406.4
35286.4
22856.9
9507.26
-4973.43
)


113
(
-4190.09
77838.4
148180
212608
273922
333137
390821
447218
502401
556361
609081
660465
710527
759189
806162
851588
895491
937839
978787
1.01793e+06
1.05525e+06
1.09116e+06
1.1255e+06
1.15827e+06
1.18945e+06
1.21884e+06
1.2467e+06
1.27305e+06
1.29791e+06
1.32128e+06
1.343e+06
1.36315e+06
1.38175e+06
1.39814e+06
1.41312e+06
1.4274e+06
1.44027e+06
1.45174e+06
1.46183e+06
1.47042e+06
1.47769e+06
1.48371e+06
1.48838e+06
1.49185e+06
1.50868e+06
1.51995e+06
1.52275e+06
1.52323e+06
1.52104e+06
1.51714e+06
1.51013e+06
1.50124e+06
1.49018e+06
1.47745e+06
1.46345e+06
1.44572e+06
1.41978e+06
1.38294e+06
1.36673e+06
1.3497e+06
1.33187e+06
1.31257e+06
1.29265e+06
1.27162e+06
1.2495e+06
1.22692e+06
1.20457e+06
1.18149e+06
1.15543e+06
1.12879e+06
1.1013e+06
1.07296e+06
1.04406e+06
1.01418e+06
983880
952490
920826
888099
855106
821109
786861
751673
716250
679979
643495
606146
568701
530518
492190
453288
414247
394564
374882
355170
335344
315517
295690
275767
255844
235920
215869
195819
175602
155275
134724
113837
92408.8
70361.4
47277.4
34953.4
22369.2
9067.83
-4973.43
)


113
(
-4190.09
62042.1
120542
173878
223815
271095
316313
359888
402096
443112
483058
521955
559885
596840
632661
667468
701282
734085
765979
796693
826218
854814
882368
907645
926875
949613
971779
992845
1.01281e+06
1.03169e+06
1.04933e+06
1.0658e+06
1.0811e+06
1.09533e+06
1.10851e+06
1.12056e+06
1.13152e+06
1.14139e+06
1.15019e+06
1.1578e+06
1.16434e+06
1.16988e+06
1.17431e+06
1.17776e+06
1.18012e+06
1.18148e+06
1.18183e+06
1.18117e+06
1.17959e+06
1.17705e+06
1.1733e+06
1.1687e+06
1.16316e+06
1.15676e+06
1.14936e+06
1.14092e+06
1.13173e+06
1.12177e+06
1.11052e+06
1.0986e+06
1.086e+06
1.07217e+06
1.0578e+06
1.0425e+06
1.02625e+06
1.0096e+06
991559
973235
953795
933813
913018
891415
869273
846196
822718
798189
773398
749695
726265
699295
671440
642776
613908
584305
554518
523969
493335
462019
430561
398499
366241
349883
333525
317096
300388
283679
266971
249825
232679
215534
197828
180123
161981
143547
124733
105349
85306
64576
42859.2
31383.6
19728.3
7598.04
-4973.43
)


113
(
-4190.09
42653.5
85462.6
125037
162131
197039
230071
261501
291555
320408
348206
375006
400926
425996
450130
473471
496066
517923
539132
559520
579099
598051
616305
633869
650723
666779
682149
696837
710841
724162
736714
748526
759600
769996
779720
788717
797008
804594
811476
817578
822979
827711
831704
835035
837633
839554
840790
841331
841235
840484
838887
836703
833851
830404
826244
821354
815918
809940
803037
795646
787767
778996
769832
759986
749448
738614
726753
714685
701792
688496
674595
660091
645184
629573
613662
596952