/*--------------------------------*- C++ -*----------------------------------*\
| =========                 |                                                 |
| \\      /  F ield         | OpenFOAM: The Open Source CFD Toolbox           |
|  \\    /   O peration     | Version:  2.3.0                                 |
|   \\  /    A nd           | Web:      www.OpenFOAM.org                      |
|    \\/     M anipulation  |                                                 |
\*---------------------------------------------------------------------------*/
FoamFile
{
    version     2.0;
    format      ascii;
    class       dictionary;
    location    "constant";
    object      HO2;
}
// * * * * * * * * * * * * * * * * * * * * * * * * * * * * * * * * * * * * * //

HO2_table
13
(

10
(

113
(
0
2.14333e-09
7.73542e-09
2.2041e-08
5.26219e-08
1.0941e-07
2.0814e-07
3.65168e-07
5.51586e-07
7.56331e-07
9.3249e-07
1.06744e-06
1.17e-06
1.22031e-06
1.26783e-06
1.3113e-06
1.36417e-06
1.42451e-06
1.50988e-06
1.61178e-06
1.72834e-06
1.85524e-06
1.98049e-06
2.09778e-06
2.18346e-06
2.24975e-06
2.23733e-06
2.18925e-06
2.08988e-06
1.92409e-06
1.73144e-06
1.50019e-06
1.2527e-06
9.95384e-07
7.64566e-07
5.55709e-07
3.75962e-07
2.51089e-07
1.50287e-07
8.83886e-08
4.97745e-08
2.37486e-08
1.332e-08
6.56395e-09
3.33641e-09
2.10624e-09
1.35307e-09
1.38101e-09
1.62486e-09
2.32757e-09
3.50176e-09
5.20765e-09
7.95563e-09
1.13983e-08
1.68147e-08
2.31599e-08
3.29787e-08
4.42163e-08
6.09e-08
8.00304e-08
1.07583e-07
1.40297e-07
1.84673e-07
2.39813e-07
3.10769e-07
4.07528e-07
5.21147e-07
6.94541e-07
8.73891e-07
1.19616e-06
1.51844e-06
2.09072e-06
2.71063e-06
3.63243e-06
4.73153e-06
6.03161e-06
7.62089e-06
9.20779e-06
1.0783e-05
1.23582e-05
1.33018e-05
1.41828e-05
1.4415e-05
1.42823e-05
1.39444e-05
1.32717e-05
1.25968e-05
1.19087e-05
1.12206e-05
1.00072e-05
8.77756e-06
8.05418e-06
7.29653e-06
6.53888e-06
5.78122e-06
5.12674e-06
4.49191e-06
3.85708e-06
3.27063e-06
2.80861e-06
2.34658e-06
1.9006e-06
1.57224e-06
1.24388e-06
9.5713e-07
7.23333e-07
5.07642e-07
3.38506e-07
1.96732e-07
1.33897e-07
8.26114e-08
3.7381e-08
0
)


113
(
0
7.49679e-09
2.66017e-08
6.41843e-08
1.23184e-07
2.04309e-07
3.08153e-07
4.3026e-07
5.58702e-07
6.90508e-07
8.17005e-07
9.35414e-07
1.04747e-06
1.14424e-06
1.23661e-06
1.32264e-06
1.40428e-06
1.48422e-06
1.56116e-06
1.6344e-06
1.70436e-06
1.76146e-06
1.81095e-06
1.84285e-06
1.85412e-06
1.85303e-06
1.81588e-06
1.76357e-06
1.68944e-06
1.58999e-06
1.47954e-06
1.35155e-06
1.2167e-06
1.07748e-06
9.3892e-07
8.04664e-07
6.76116e-07
5.61926e-07
4.55839e-07
3.64814e-07
2.88242e-07
2.20457e-07
1.69495e-07
1.27133e-07
9.30336e-08
7.01449e-08
5.05191e-08
4.00152e-08
3.19005e-08
2.88628e-08
2.86385e-08
3.15869e-08
3.81487e-08
4.71193e-08
6.14242e-08
7.82394e-08
1.03616e-07
1.3249e-07
1.75118e-07
2.23926e-07
2.9332e-07
3.75331e-07
4.86037e-07
6.23229e-07
7.93323e-07
1.0171e-06
1.26876e-06
1.61928e-06
1.97648e-06
2.49402e-06
3.01156e-06
3.68683e-06
4.39213e-06
5.19789e-06
6.06264e-06
6.95398e-06
7.88361e-06
8.79733e-06
9.6334e-06
1.04695e-05
1.10556e-05
1.16171e-05
1.19209e-05
1.20797e-05
1.20712e-05
1.17895e-05
1.14485e-05
1.07704e-05
1.00924e-05
9.13285e-06
8.16459e-06
7.62508e-06
7.06807e-06
6.51106e-06
5.95405e-06
5.40452e-06
4.85642e-06
4.30832e-06
3.77997e-06
3.30242e-06
2.82487e-06
2.35885e-06
1.97734e-06
1.59584e-06
1.25406e-06
9.62829e-07
6.91118e-07
4.6959e-07
2.79262e-07
1.93397e-07
1.2205e-07
5.76572e-08
0
)


113
(
0
3.5265e-08
8.19074e-08
1.41225e-07
2.10512e-07
2.88353e-07
3.74824e-07
4.65287e-07
5.57585e-07
6.51063e-07
7.43734e-07
8.34061e-07
9.22546e-07
1.00359e-06
1.08059e-06
1.15178e-06
1.2136e-06
1.27079e-06
1.3168e-06
1.35509e-06
1.38652e-06
1.40477e-06
1.41761e-06
1.41924e-06
1.41176e-06
1.39888e-06
1.37322e-06
1.34252e-06
1.30459e-06
1.25913e-06
1.21005e-06
1.15446e-06
1.09586e-06
1.03526e-06
9.7136e-07
9.07326e-07
8.43113e-07
7.80545e-07
7.19108e-07
6.59946e-07
6.05324e-07
5.53639e-07
5.08546e-07
4.68337e-07
4.32821e-07
4.06441e-07
3.83574e-07
3.75039e-07
3.71476e-07
3.7848e-07
3.95426e-07
4.23582e-07
4.65885e-07
5.17618e-07
5.89832e-07
6.71684e-07
7.77979e-07
8.94258e-07
1.04062e-06
1.20049e-06
1.39071e-06
1.59954e-06
1.83691e-06
2.10062e-06
2.38568e-06
2.70559e-06
3.03782e-06
3.41377e-06
3.79156e-06
4.21366e-06
4.63575e-06
5.08103e-06
5.53071e-06
5.98025e-06
6.42969e-06
6.86425e-06
7.2774e-06
7.67639e-06
8.00627e-06
8.33616e-06
8.55128e-06
8.75506e-06
8.84867e-06
8.8803e-06
8.83763e-06
8.67369e-06
8.48053e-06
8.12174e-06
7.76294e-06
7.2272e-06
6.686e-06
6.36737e-06
6.03357e-06
5.69978e-06
5.36599e-06
5.00272e-06
4.63383e-06
4.26495e-06
3.8929e-06
3.51273e-06
3.13255e-06
2.75509e-06
2.39752e-06
2.03995e-06
1.6958e-06
1.36875e-06
1.0514e-06
7.5901e-07
4.88533e-07
3.59866e-07
2.41869e-07
1.25444e-07
0
)


113
(
0
5.6279e-08
1.11388e-07
1.70737e-07
2.33375e-07
2.98194e-07
3.64305e-07
4.30518e-07
4.96025e-07
5.60667e-07
6.22627e-07
6.8218e-07
7.39841e-07
7.9422e-07
8.45124e-07
8.91029e-07
9.31239e-07
9.68651e-07
9.99355e-07
1.02564e-06
1.04801e-06
1.06414e-06
1.07792e-06
1.08701e-06
1.09167e-06
1.09373e-06
1.0909e-06
1.08638e-06
1.07944e-06
1.06985e-06
1.05894e-06
1.04554e-06
1.03264e-06
1.02004e-06
1.00681e-06
9.95095e-07
9.85385e-07
9.78154e-07
9.72739e-07
9.71053e-07
9.73822e-07
9.79675e-07
9.93479e-07
1.01288e-06
1.03767e-06
1.07184e-06
1.1096e-06
1.16197e-06
1.21891e-06
1.28557e-06
1.36105e-06
1.44648e-06
1.54607e-06
1.6551e-06
1.77603e-06
1.90256e-06
2.04952e-06
2.20482e-06
2.3715e-06
2.54329e-06
2.73068e-06
2.92762e-06
3.13281e-06
3.34563e-06
3.56418e-06
3.79209e-06
4.02158e-06
4.2567e-06
4.49175e-06
4.7253e-06
4.95885e-06
5.18201e-06
5.4032e-06
5.60791e-06
5.80296e-06
5.98269e-06
6.1404e-06
6.28857e-06
6.39017e-06
6.49176e-06
6.53298e-06
6.56823e-06
6.54711e-06
6.49427e-06
6.40596e-06
6.25977e-06
6.0985e-06
5.85177e-06
5.60504e-06
5.27757e-06
4.9476e-06
4.75234e-06
4.54752e-06
4.3427e-06
4.13788e-06
3.90691e-06
3.67095e-06
3.43499e-06
3.1932e-06
2.93638e-06
2.67956e-06
2.42153e-06
2.15462e-06
1.88772e-06
1.62081e-06
1.35388e-06
1.08845e-06
8.26865e-07
5.66133e-07
4.35581e-07
3.00379e-07
1.58412e-07
0
)


113
(
0
5.85237e-08
1.09907e-07
1.5968e-07
2.09329e-07
2.58998e-07
3.08491e-07
3.57297e-07
4.05298e-07
4.52502e-07
4.9794e-07
5.42103e-07
5.85264e-07
6.25922e-07
6.6552e-07
7.03593e-07
7.39631e-07
7.74755e-07
8.07902e-07
8.39935e-07
8.70981e-07
9.00472e-07
9.29459e-07
9.57503e-07
9.86124e-07
1.01506e-06
1.04342e-06
1.07189e-06
1.10051e-06
1.12835e-06
1.15692e-06
1.18892e-06
1.22112e-06
1.25351e-06
1.28865e-06
1.32784e-06
1.37238e-06
1.41386e-06
1.45673e-06
1.5048e-06
1.55822e-06
1.61426e-06
1.67183e-06
1.73438e-06
1.80171e-06
1.87526e-06
1.95016e-06
2.02643e-06
2.10836e-06
2.20229e-06
2.29583e-06
2.38893e-06
2.48886e-06
2.59333e-06
2.70578e-06
2.82197e-06
2.93628e-06
3.04982e-06
3.1696e-06
3.29217e-06
3.41551e-06
3.53933e-06
3.66398e-06
3.7894e-06
3.91292e-06
4.03335e-06
4.15251e-06
4.26721e-06
4.38136e-06
4.48247e-06
4.58357e-06
4.66636e-06
4.74565e-06
4.81286e-06
4.87299e-06
4.91955e-06
4.94659e-06
4.96892e-06
4.96829e-06
4.96766e-06
4.9314e-06
4.89162e-06
4.82367e-06
4.73988e-06
4.63799e-06
4.50657e-06
4.36771e-06
4.18673e-06
4.00574e-06
3.77702e-06
3.54682e-06
3.41425e-06
3.27617e-06
3.13809e-06
3.00001e-06
2.84533e-06
2.6875e-06
2.52967e-06
2.36756e-06
2.19447e-06
2.02138e-06
1.84701e-06
1.66323e-06
1.47946e-06
1.29203e-06
1.09996e-06
9.05043e-07
7.02829e-07
4.90488e-07
3.80926e-07
2.62348e-07
1.3715e-07
0
)


113
(
0
5.60377e-08
1.05355e-07
1.51506e-07
1.9641e-07
2.40792e-07
2.85022e-07
3.29331e-07
3.73743e-07
4.18254e-07
4.62931e-07
5.07697e-07
5.52534e-07
5.97532e-07
6.42615e-07
6.87818e-07
7.33253e-07
7.78815e-07
8.24719e-07
8.70919e-07
9.1738e-07
9.64489e-07
1.0119e-06
1.05997e-06
1.10873e-06
1.15788e-06
1.20825e-06
1.25919e-06
1.31095e-06
1.36394e-06
1.41759e-06
1.47257e-06
1.52865e-06
1.58552e-06
1.64719e-06
1.70852e-06
1.76942e-06
1.83203e-06
1.89551e-06
1.96047e-06
2.02685e-06
2.0941e-06
2.16313e-06
2.24044e-06
2.32571e-06
2.39915e-06
2.47276e-06
2.56605e-06
2.65208e-06
2.72269e-06
2.79597e-06
2.87225e-06
2.9455e-06
3.01674e-06
3.08505e-06
3.15198e-06
3.19461e-06
3.22731e-06
3.28279e-06
3.34851e-06
3.41141e-06
3.47258e-06
3.53059e-06
3.58569e-06
3.63784e-06
3.68517e-06
3.73064e-06
3.76945e-06
3.80774e-06
3.83326e-06
3.85878e-06
3.873e-06
3.88506e-06
3.88727e-06
3.88369e-06
3.87276e-06
3.85127e-06
3.82634e-06
3.78461e-06
3.74287e-06
3.68066e-06
3.61643e-06
3.53655e-06
3.44787e-06
3.34937e-06
3.23483e-06
3.11633e-06
2.97529e-06
2.83425e-06
2.66793e-06
2.50082e-06
2.408e-06
2.31224e-06
2.21649e-06
2.12073e-06
2.01579e-06
1.9091e-06
1.80241e-06
1.69297e-06
1.57645e-06
1.45992e-06
1.34223e-06
1.21602e-06
1.08981e-06
9.5876e-07
8.2155e-07
6.80589e-07
5.2998e-07
3.69286e-07
2.8575e-07
1.95405e-07
1.00982e-07
0
)


113
(
0
6.10446e-08
1.16732e-07
1.69059e-07
2.19597e-07
2.69099e-07
3.18028e-07
3.66827e-07
4.15737e-07
4.648e-07
5.14327e-07
5.6422e-07
6.14399e-07
6.65303e-07
7.16514e-07
7.68166e-07
8.20411e-07
8.72927e-07
9.26041e-07
9.79518e-07
1.03332e-06
1.0877e-06
1.14157e-06
1.19379e-06
1.24745e-06
1.30192e-06
1.35665e-06
1.41146e-06
1.46638e-06
1.52138e-06
1.57639e-06
1.63141e-06
1.68636e-06
1.74127e-06
1.79596e-06
1.85051e-06
1.90486e-06
1.95881e-06
2.01251e-06
2.06575e-06
2.11845e-06
2.17079e-06
2.22227e-06
2.27313e-06
2.3234e-06
2.37242e-06
2.421e-06
2.46796e-06
2.51422e-06
2.559e-06
2.60255e-06
2.64474e-06
2.6851e-06
2.72425e-06
2.76099e-06
2.79659e-06
2.82926e-06
2.86073e-06
2.8889e-06
2.9156e-06
2.93891e-06
2.96015e-06
2.97816e-06
2.9932e-06
3.0056e-06
3.01367e-06
3.02004e-06
3.02036e-06
3.02034e-06
3.01208e-06
3.00383e-06
2.98768e-06
2.97002e-06
2.94593e-06
2.91806e-06
2.88567e-06
2.84677e-06
2.80705e-06
2.76339e-06
2.71973e-06
2.65657e-06
2.59147e-06
2.51821e-06
2.44036e-06
2.35751e-06
2.26651e-06
2.17351e-06
2.0692e-06
1.96488e-06
1.84766e-06
1.73004e-06
1.66618e-06
1.60072e-06
1.53525e-06
1.46979e-06
1.39863e-06
1.32637e-06
1.25412e-06
1.17983e-06
1.10028e-06
1.02073e-06
9.40199e-07
8.52422e-07
7.64645e-07
6.7274e-07
5.75583e-07
4.75578e-07
3.6825e-07
2.5439e-07
1.95447e-07
1.32691e-07
6.78922e-08
0
)


113
(
0
6.52576e-08
1.26376e-07
1.84163e-07
2.3961e-07
2.9323e-07
3.45277e-07
3.95986e-07
4.45912e-07
4.95206e-07
5.43645e-07
5.91683e-07
6.39405e-07
6.86546e-07
7.33484e-07
7.80128e-07
8.26402e-07
8.72506e-07
9.18227e-07
9.63689e-07
1.00892e-06
1.05368e-06
1.09822e-06
1.14233e-06
1.18601e-06
1.22944e-06
1.27215e-06
1.31451e-06
1.35639e-06
1.39753e-06
1.43828e-06
1.47824e-06
1.51752e-06
1.55635e-06
1.594e-06
1.6311e-06
1.66745e-06
1.70262e-06
1.73717e-06
1.77062e-06
1.80297e-06
1.83461e-06
1.86473e-06
1.89388e-06
1.9221e-06
1.94855e-06
1.97442e-06
1.99822e-06
2.02121e-06
2.04247e-06
2.06244e-06
2.08094e-06
2.09766e-06
2.11318e-06
2.1265e-06
2.13878e-06
2.14857e-06
2.15734e-06
2.16348e-06
2.16845e-06
2.17088e-06
2.17177e-06
2.17038e-06
2.16689e-06
2.16164e-06
2.1535e-06
2.14429e-06
2.13124e-06
2.11799e-06
2.09977e-06
2.08155e-06
2.05879e-06
2.03515e-06
2.00796e-06
1.97867e-06
1.94697e-06
1.91179e-06
1.87557e-06
1.83424e-06
1.7929e-06
1.74573e-06
1.69798e-06
1.64594e-06
1.5915e-06
1.5344e-06
1.47298e-06
1.41046e-06
1.34169e-06
1.27293e-06
1.19657e-06
1.11998e-06
1.07846e-06
1.03593e-06
9.93405e-07
9.50876e-07
9.04453e-07
8.57289e-07
8.10124e-07
7.61528e-07
7.09251e-07
6.56974e-07
6.04028e-07
5.46174e-07
4.88319e-07
4.27902e-07
3.64223e-07
2.98967e-07
2.29652e-07
1.57109e-07
1.19857e-07
8.08924e-08
4.10715e-08
0
)


113
(
0
5.04973e-08
9.87115e-08
1.44759e-07
1.89019e-07
2.31679e-07
2.72746e-07
3.12177e-07
3.50487e-07
3.87833e-07
4.23628e-07
4.58543e-07
4.92768e-07
5.25518e-07
5.57701e-07
5.89065e-07
6.19378e-07
6.49215e-07
6.78009e-07
7.06166e-07
7.33757e-07
7.603e-07
7.86432e-07
8.11725e-07
8.36308e-07
8.60469e-07
8.83554e-07
9.06191e-07
9.28184e-07
9.49307e-07
9.69983e-07
9.89796e-07
1.00894e-06
1.02762e-06
1.04522e-06
1.06233e-06
1.0788e-06
1.09429e-06
1.1093e-06
1.12347e-06
1.13681e-06
1.14965e-06
1.16142e-06
1.17253e-06
1.18302e-06
1.19237e-06
1.20134e-06
1.20904e-06
1.21626e-06
1.22244e-06
1.22788e-06
1.23248e-06
1.23609e-06
1.23904e-06
1.2408e-06
1.24201e-06
1.24192e-06
1.2413e-06
1.23935e-06
1.23681e-06
1.23302e-06
1.22847e-06
1.22283e-06
1.21618e-06
1.2087e-06
1.19986e-06
1.19053e-06
1.17941e-06
1.1682e-06
1.15472e-06
1.14123e-06
1.12567e-06
1.10971e-06
1.09212e-06
1.07358e-06
1.05392e-06
1.03265e-06
1.01089e-06
9.8673e-07
9.62569e-07
9.35592e-07
9.08337e-07
8.78953e-07
8.48372e-07
8.16429e-07
7.82263e-07
7.47516e-07
7.09468e-07
6.71421e-07
6.29299e-07
5.8705e-07
5.64212e-07
5.40833e-07
5.17453e-07
4.94074e-07
4.68697e-07
4.42939e-07
4.17181e-07
3.90737e-07
3.62528e-07
3.3432e-07
3.05819e-07
2.75175e-07
2.4453e-07
2.12878e-07
1.79944e-07
1.46453e-07
1.11527e-07
7.55599e-08
5.72638e-08
3.84543e-08
1.94009e-08
0
)


113
(
0
5.70208e-09
1.12702e-08
1.66977e-08
2.19976e-08
2.71738e-08
3.2217e-08
3.71095e-08
4.18902e-08
4.65719e-08
5.10811e-08
5.54841e-08
5.98036e-08
6.3931e-08
6.79795e-08
7.19145e-08
7.56954e-08
7.94053e-08
8.2956e-08
8.64061e-08
8.97672e-08
9.29594e-08
9.60849e-08
9.90734e-08
1.01945e-07
1.04748e-07
1.07375e-07
1.09928e-07
1.12377e-07
1.14685e-07
1.16922e-07
1.19022e-07
1.21016e-07
1.2294e-07
1.24696e-07
1.26379e-07
1.27966e-07
1.29409e-07
1.30782e-07
1.32032e-07
1.33168e-07
1.34231e-07
1.35147e-07
1.35975e-07
1.36718e-07
1.37311e-07
1.37855e-07
1.38234e-07
1.38552e-07
1.3874e-07
1.38836e-07
1.38828e-07
1.387e-07
1.38492e-07
1.38145e-07
1.37731e-07
1.37167e-07
1.36542e-07
1.35766e-07
1.34923e-07
1.33941e-07
1.32874e-07
1.31688e-07
1.30391e-07
1.29006e-07
1.27475e-07
1.25892e-07
1.24122e-07
1.22342e-07
1.20329e-07
1.18315e-07
1.16093e-07
1.13831e-07
1.1141e-07
1.08895e-07
1.06274e-07
1.035e-07
1.00682e-07
9.76434e-08
9.46048e-08
9.13192e-08
8.80091e-08
8.4522e-08
8.09353e-08
7.72423e-08
7.33759e-08
6.94674e-08
6.53205e-08
6.11737e-08
5.67577e-08
5.23333e-08
5.0019e-08
4.76724e-08
4.53258e-08
4.29792e-08
4.05261e-08
3.80527e-08
3.55793e-08
3.30734e-08
3.04838e-08
2.78942e-08
2.52923e-08
2.25999e-08
1.99074e-08
1.71769e-08
1.43979e-08
1.15996e-08
8.75202e-09
5.8713e-09
4.42106e-09
2.95538e-09
1.48263e-09
0
)

)


10
(

113
(
0
4.10475e-08
1.43147e-07
3.64024e-07
7.49396e-07
1.36461e-06
2.26081e-06
3.41787e-06
4.69754e-06
5.88514e-06
6.80473e-06
7.38308e-06
7.63961e-06
7.64579e-06
7.48802e-06
7.23389e-06
6.937e-06
6.63104e-06
6.33026e-06
6.04309e-06
5.77347e-06
5.52182e-06
5.28577e-06
5.06163e-06
4.84072e-06
4.61646e-06
4.38301e-06
4.13498e-06
3.86795e-06
3.5791e-06
3.2674e-06
2.93368e-06
2.58058e-06
2.21446e-06
1.84374e-06
1.48137e-06
1.14132e-06
8.38968e-07
5.85753e-07
3.8857e-07
2.46472e-07
1.53951e-07
9.92517e-08
7.15884e-08
6.28688e-08
6.77881e-08
8.34432e-08
1.0883e-07
1.45391e-07
1.95454e-07
2.61768e-07
3.48637e-07
4.60698e-07
6.0287e-07
7.79877e-07
1.01258e-06
1.30386e-06
1.65706e-06
2.07609e-06
2.59786e-06
3.2212e-06
3.92397e-06
4.71758e-06
5.60319e-06
6.51193e-06
7.43747e-06
8.28842e-06
9.07265e-06
9.70604e-06
1.01659e-05
1.05251e-05
1.06158e-05
1.06381e-05
1.04883e-05
1.02573e-05
9.94644e-06
9.57592e-06
9.18232e-06
8.78801e-06
8.39788e-06
8.05945e-06
7.73192e-06
7.44064e-06
7.14021e-06
6.82519e-06
6.45889e-06
6.0513e-06
5.56916e-06
5.06216e-06
4.50312e-06
3.94462e-06
3.66658e-06
3.38855e-06
3.11746e-06
2.85891e-06
2.60036e-06
2.35043e-06
2.1183e-06
1.88618e-06
1.66868e-06
1.46364e-06
1.25958e-06
1.08003e-06
9.00474e-07
7.39973e-07
5.82934e-07
4.44656e-07
3.14372e-07
1.96072e-07
1.41001e-07
9.02008e-08
4.27507e-08
0
)


113
(
0
1.02273e-07
3.20391e-07
6.92844e-07
1.2148e-06
1.87607e-06
2.64294e-06
3.45906e-06
4.26033e-06
4.9906e-06
5.61e-06
6.09614e-06
6.44208e-06
6.653e-06
6.74342e-06
6.72608e-06
6.62333e-06
6.46724e-06
6.27297e-06
6.05296e-06
5.81645e-06
5.56964e-06
5.3178e-06
5.06087e-06
4.80091e-06
4.53698e-06
4.26846e-06
3.99487e-06
3.71615e-06
3.43286e-06
3.14624e-06
2.85839e-06
2.57182e-06
2.29009e-06
2.01673e-06
1.75612e-06
1.51143e-06
1.28586e-06
1.08257e-06
9.03212e-07
7.49061e-07
6.22147e-07
5.22338e-07
4.49203e-07
4.02236e-07
3.81086e-07
3.85454e-07
4.15968e-07
4.75057e-07
5.64102e-07
6.83457e-07
8.35581e-07
1.02255e-06
1.24631e-06
1.50832e-06
1.82272e-06
2.1827e-06
2.58436e-06
3.02563e-06
3.51746e-06
4.0462e-06
4.59877e-06
5.17429e-06
5.76007e-06
6.34018e-06
6.90874e-06
7.43268e-06
7.92543e-06
8.35291e-06
8.70591e-06
9.01573e-06
9.19452e-06
9.33313e-06
9.36751e-06
9.33802e-06
9.24569e-06
9.07999e-06
8.8859e-06
8.62509e-06
8.35391e-06
8.03791e-06
7.71398e-06
7.36369e-06
7.00085e-06
6.61806e-06
6.21536e-06
5.79663e-06
5.35035e-06
4.89489e-06
4.41147e-06
3.92465e-06
3.67746e-06
3.43028e-06
3.18483e-06
2.94254e-06
2.70026e-06
2.4624e-06
2.23372e-06
2.00503e-06
1.78665e-06
1.57705e-06
1.36824e-06
1.17962e-06
9.91005e-07
8.19617e-07
6.51368e-07
5.01072e-07
3.57869e-07
2.25831e-07
1.63913e-07
1.0627e-07
5.21629e-08
0
)


113
(
0
2.86579e-07
6.394e-07
1.05681e-06
1.5137e-06
1.99751e-06
2.49054e-06
2.97063e-06
3.42585e-06
3.84409e-06
4.2175e-06
4.54167e-06
4.81429e-06
5.03414e-06
5.20093e-06
5.312e-06
5.36993e-06
5.3821e-06
5.35445e-06
5.29061e-06
5.19398e-06
5.06969e-06
4.92356e-06
4.75121e-06
4.56823e-06
4.37259e-06
4.16803e-06
3.95869e-06
3.74697e-06
3.53477e-06
3.32485e-06
3.11906e-06
2.91904e-06
2.72784e-06
2.54648e-06
2.37666e-06
2.22016e-06
2.07871e-06
1.95275e-06
1.84498e-06
1.75535e-06
1.68579e-06
1.63828e-06
1.61129e-06
1.60838e-06
1.62744e-06
1.67051e-06
1.73696e-06
1.8297e-06
1.94789e-06
2.08907e-06
2.2546e-06
2.44163e-06
2.64869e-06
2.87643e-06
3.12554e-06
3.39095e-06
3.66941e-06
3.95886e-06
4.25897e-06
4.56448e-06
4.872e-06
5.17996e-06
5.48181e-06
5.77675e-06
6.06187e-06
6.32598e-06
6.57726e-06
6.8031e-06
7.00131e-06
7.18351e-06
7.31569e-06
7.43109e-06
7.50249e-06
7.54212e-06
7.5505e-06
7.51105e-06
7.45309e-06
7.33534e-06
7.20661e-06
7.01721e-06
6.8144e-06
6.56693e-06
6.29985e-06
6.00158e-06
5.67936e-06
5.33787e-06
4.96996e-06
4.59324e-06
4.19417e-06
3.79118e-06
3.58523e-06
3.37929e-06
3.1726e-06
2.96459e-06
2.75657e-06
2.54895e-06
2.34212e-06
2.1353e-06
1.93127e-06
1.72962e-06
1.5284e-06
1.33795e-06
1.14749e-06
9.65715e-07
7.85527e-07
6.15713e-07
4.51337e-07
2.95735e-07
2.21268e-07
1.50166e-07
7.90833e-08
0
)


113
(
0
3.48115e-07
6.71659e-07
1.00453e-06
1.34107e-06
1.67421e-06
1.99763e-06
2.3063e-06
2.59649e-06
2.86547e-06
3.11139e-06
3.33302e-06
3.53233e-06
3.71012e-06
3.86232e-06
3.98429e-06
4.07714e-06
4.1464e-06
4.19174e-06
4.21671e-06
4.22334e-06
4.21036e-06
4.18357e-06
4.14e-06
4.08682e-06
4.02289e-06
3.95252e-06
3.87584e-06
3.79318e-06
3.7083e-06
3.62361e-06
3.53815e-06
3.45607e-06
3.37679e-06
3.30348e-06
3.23366e-06
3.17358e-06
3.12059e-06
3.07467e-06
3.04072e-06
3.01589e-06
3.00272e-06
3.00067e-06
3.01081e-06
3.0304e-06
3.06422e-06
3.10806e-06
3.16381e-06
3.23012e-06
3.30958e-06
3.39769e-06
3.49759e-06
3.60579e-06
3.72027e-06
3.84242e-06
3.97266e-06
4.10815e-06
4.24728e-06
4.38914e-06
4.53337e-06
4.67741e-06
4.82079e-06
4.96297e-06
5.09946e-06
5.23172e-06
5.35838e-06
5.47396e-06
5.58307e-06
5.6796e-06
5.76261e-06
5.83777e-06
5.88955e-06
5.93328e-06
5.95582e-06
5.96246e-06
5.95345e-06
5.91639e-06
5.86847e-06
5.78962e-06
5.70463e-06
5.58268e-06
5.45231e-06
5.29388e-06
5.12008e-06
4.9218e-06
4.70179e-06
4.4643e-06
4.20084e-06
3.92872e-06
3.63695e-06
3.33874e-06
3.18212e-06
3.0255e-06
2.86609e-06
2.70165e-06
2.53722e-06
2.37115e-06
2.20171e-06
2.03227e-06
1.86157e-06
1.68982e-06
1.51807e-06
1.34661e-06
1.17514e-06
1.00601e-06
8.37311e-07
6.72863e-07
5.10257e-07
3.4937e-07
2.68827e-07
1.85766e-07
9.80781e-08
0
)


113
(
0
3.09942e-07
5.72388e-07
8.19263e-07
1.05891e-06
1.2919e-06
1.51701e-06
1.73269e-06
1.93764e-06
2.13101e-06
2.31232e-06
2.48132e-06
2.63801e-06
2.78244e-06
2.91481e-06
3.03455e-06
3.14147e-06
3.2375e-06
3.32314e-06
3.39891e-06
3.46536e-06
3.52308e-06
3.57266e-06
3.61377e-06
3.6518e-06
3.68688e-06
3.71771e-06
3.74139e-06
3.75852e-06
3.77215e-06
3.78202e-06
3.78802e-06
3.79604e-06
3.79974e-06
3.80564e-06
3.81022e-06
3.81695e-06
3.82418e-06
3.8323e-06
3.8452e-06
3.85483e-06
3.87449e-06
3.88971e-06
3.91314e-06
3.93634e-06
3.96426e-06
3.99354e-06
4.02726e-06
4.06412e-06
4.10249e-06
4.14248e-06
4.18632e-06
4.23212e-06
4.27863e-06
4.32647e-06
4.37552e-06
4.42533e-06
4.4751e-06
4.52439e-06
4.57216e-06
4.61924e-06
4.66466e-06
4.70724e-06
4.74525e-06
4.78091e-06
4.81376e-06
4.84016e-06
4.86252e-06
4.87674e-06
4.88295e-06
4.88451e-06
4.87317e-06
4.85674e-06
4.8267e-06
4.78633e-06
4.73579e-06
4.67429e-06
4.60855e-06
4.52745e-06
4.4432e-06
4.33922e-06
4.23014e-06
4.10406e-06
3.96933e-06
3.82084e-06
3.66008e-06
3.48943e-06
3.30278e-06
3.11079e-06
2.89906e-06
2.68189e-06
2.56699e-06
2.45208e-06
2.33448e-06
2.21198e-06
2.08948e-06
1.96505e-06
1.83661e-06
1.70818e-06
1.57754e-06
1.445e-06
1.31237e-06
1.1773e-06
1.04223e-06
9.05548e-07
7.68561e-07
6.28835e-07
4.86482e-07
3.38746e-07
2.62147e-07
1.80665e-07
9.42602e-08
0
)


113
(
0
2.50113e-07
4.62703e-07
6.55324e-07
8.37137e-07
1.01117e-06
1.17888e-06
1.34092e-06
1.49747e-06
1.64855e-06
1.79409e-06
1.93403e-06
2.06832e-06
2.19696e-06
2.31995e-06
2.43694e-06
2.54773e-06
2.65315e-06
2.75334e-06
2.84846e-06
2.93866e-06
3.02414e-06
3.10504e-06
3.18097e-06
3.25286e-06
3.32091e-06
3.38533e-06
3.44632e-06
3.50408e-06
3.5588e-06
3.6107e-06
3.65996e-06
3.70678e-06
3.75159e-06
3.79904e-06
3.83951e-06
3.8782e-06
3.91528e-06
3.95088e-06
3.98511e-06
4.01808e-06
4.04987e-06
4.08058e-06
4.11585e-06
4.18483e-06
4.22899e-06
4.26552e-06
4.29653e-06
4.32343e-06
4.3473e-06
4.3674e-06
4.38027e-06
4.38992e-06
4.4003e-06
4.41247e-06
4.42529e-06
4.43029e-06
4.39078e-06
4.3148e-06
4.31486e-06
4.31212e-06
4.30702e-06
4.29912e-06
4.28706e-06
4.27239e-06
4.25444e-06
4.23262e-06
4.20775e-06
4.1762e-06
4.14013e-06
4.10144e-06
4.05508e-06
4.0062e-06
3.95076e-06
3.89046e-06
3.82539e-06
3.7528e-06
3.67729e-06
3.59162e-06
3.50402e-06
3.40548e-06
3.30409e-06
3.19319e-06
3.07742e-06
2.95387e-06
2.8233e-06
2.68707e-06
2.54155e-06
2.39294e-06
2.23271e-06
2.06924e-06
1.98372e-06
1.89821e-06
1.81101e-06
1.72076e-06
1.63051e-06
1.5389e-06
1.44449e-06
1.35009e-06
1.2536e-06
1.15534e-06
1.05693e-06
9.54616e-07
8.52307e-07
7.4583e-07
6.3858e-07
5.2513e-07
4.07721e-07
2.83484e-07
2.18496e-07
1.49464e-07
7.70625e-08
0
)


113
(
0
1.96756e-07
3.70123e-07
5.27477e-07
6.74681e-07
8.141e-07
9.47363e-07
1.07565e-06
1.19976e-06
1.32022e-06
1.43738e-06
1.55144e-06
1.66256e-06
1.77079e-06
1.87621e-06
1.97863e-06
2.07791e-06
2.17442e-06
2.26816e-06
2.35916e-06
2.44742e-06
2.53296e-06
2.61578e-06
2.68003e-06
2.75282e-06
2.82462e-06
2.8936e-06
2.9598e-06
3.02323e-06
3.08392e-06
3.14189e-06
3.19716e-06
3.24977e-06
3.29973e-06
3.34708e-06
3.39178e-06
3.43392e-06
3.47354e-06
3.51067e-06
3.54531e-06
3.57749e-06
3.60715e-06
3.63432e-06
3.65906e-06
3.68137e-06
3.70126e-06
3.71873e-06
3.73379e-06
3.74626e-06
3.75616e-06
3.76359e-06
3.76854e-06
3.77103e-06
3.77107e-06
3.7687e-06
3.7632e-06
3.75505e-06
3.74445e-06
3.73146e-06
3.7152e-06
3.69598e-06
3.67439e-06
3.65003e-06
3.62184e-06
3.59136e-06
3.55802e-06
3.52058e-06
3.48104e-06
3.43768e-06
3.39088e-06
3.34209e-06
3.28777e-06
3.23171e-06
3.17116e-06
3.10742e-06
3.04056e-06
2.96896e-06
2.89552e-06
2.82347e-06
2.75026e-06
2.66117e-06
2.57056e-06
2.47486e-06
2.37659e-06
2.27423e-06
2.16822e-06
2.05926e-06
1.94546e-06
1.83003e-06
1.70834e-06
1.58476e-06
1.52076e-06
1.45676e-06
1.39162e-06
1.32443e-06
1.25724e-06
1.18893e-06
1.11832e-06
1.04772e-06
9.75026e-07
9.00564e-07
8.25931e-07
7.46972e-07
6.68013e-07
5.84581e-07
5.00325e-07
4.10215e-07
3.1691e-07
2.18444e-07
1.67229e-07
1.1353e-07
5.79632e-08
0
)


113
(
0
1.44862e-07
2.77487e-07
4.00035e-07
5.15209e-07
6.24066e-07
7.27474e-07
8.26209e-07
9.20915e-07
1.0121e-06
1.10017e-06
1.18541e-06
1.26805e-06
1.34828e-06
1.42622e-06
1.50182e-06
1.57507e-06
1.64628e-06
1.7155e-06
1.78274e-06
1.84803e-06
1.91136e-06
1.97274e-06
2.03187e-06
2.08906e-06
2.1443e-06
2.19758e-06
2.2489e-06
2.29822e-06
2.34555e-06
2.39087e-06
2.43416e-06
2.47541e-06
2.51461e-06
2.55175e-06
2.58677e-06
2.61971e-06
2.65059e-06
2.67938e-06
2.70609e-06
2.73071e-06
2.75317e-06
2.77349e-06
2.79169e-06
2.80779e-06
2.82177e-06
2.83363e-06
2.84339e-06
2.85087e-06
2.85612e-06
2.85923e-06
2.86019e-06
2.85903e-06
2.85578e-06
2.85049e-06
2.84258e-06
2.83246e-06
2.82034e-06
2.80627e-06
2.78958e-06
2.77055e-06
2.74968e-06
2.72667e-06
2.70077e-06
2.67316e-06
2.64345e-06
2.61079e-06
2.57663e-06
2.53981e-06
2.50064e-06
2.4601e-06
2.4159e-06
2.37059e-06
2.32236e-06
2.27214e-06
2.21994e-06
2.16484e-06
2.10862e-06
2.04867e-06
1.98804e-06
1.92357e-06
1.85814e-06
1.78948e-06
1.71918e-06
1.64626e-06
1.57093e-06
1.49365e-06
1.413e-06
1.33121e-06
1.24472e-06
1.1567e-06
1.11088e-06
1.06507e-06
1.01826e-06
9.6966e-07
9.21058e-07
8.71449e-07
8.19759e-07
7.68068e-07
7.1453e-07
6.59418e-07
6.04164e-07
5.45316e-07
4.86467e-07
4.24253e-07
3.61423e-07
2.94655e-07
2.25963e-07
1.54284e-07
1.17365e-07
7.91937e-08
4.01382e-08
0
)


113
(
0
8.35397e-08
1.6252e-07
2.37211e-07
3.08392e-07
3.76269e-07
4.41037e-07
5.02924e-07
5.62157e-07
6.18949e-07
6.73482e-07
7.25911e-07
7.7637e-07
8.24965e-07
8.71794e-07
9.1682e-07
9.60039e-07
1.00172e-06
1.04192e-06
1.08067e-06
1.11801e-06
1.15398e-06
1.1886e-06
1.2217e-06
1.25351e-06
1.28407e-06
1.31337e-06
1.34143e-06
1.36827e-06
1.39389e-06
1.4183e-06
1.44151e-06
1.46352e-06
1.48434e-06
1.50398e-06
1.5224e-06
1.53964e-06
1.55572e-06
1.57064e-06
1.58439e-06
1.59699e-06
1.60839e-06
1.61862e-06
1.62769e-06
1.63561e-06
1.64238e-06
1.648e-06
1.65248e-06
1.65573e-06
1.65778e-06
1.65868e-06
1.65843e-06
1.65704e-06
1.65453e-06
1.65094e-06
1.64595e-06
1.63978e-06
1.63255e-06
1.62429e-06
1.61464e-06
1.60375e-06
1.59188e-06
1.57888e-06
1.56434e-06
1.5489e-06
1.53234e-06
1.5142e-06
1.49527e-06
1.4749e-06
1.45325e-06
1.43087e-06
1.40648e-06
1.38146e-06
1.35482e-06
1.32704e-06
1.29815e-06
1.26755e-06
1.2363e-06
1.2028e-06
1.16889e-06
1.13258e-06
1.09565e-06
1.05662e-06
1.01649e-06
9.74598e-07
9.31021e-07
8.8609e-07
8.38745e-07
7.90595e-07
7.3906e-07
6.86432e-07
6.58842e-07
6.31252e-07
6.02985e-07
5.73494e-07
5.44003e-07
5.13868e-07
4.82402e-07
4.50936e-07
4.18383e-07
3.84904e-07
3.51349e-07
3.15876e-07
2.80403e-07
2.43308e-07
2.05917e-07
1.66808e-07
1.26932e-07
8.58992e-08
6.4985e-08
4.36352e-08
2.19916e-08
0
)


113
(
0
7.68099e-09
1.51744e-08
2.24729e-08
2.95974e-08
3.65445e-08
4.33115e-08
4.98988e-08
5.63085e-08
6.25439e-08
6.86085e-08
7.45053e-08
8.02372e-08
8.58063e-08
9.12147e-08
9.64525e-08
1.01512e-07
1.06416e-07
1.11164e-07
1.15758e-07
1.20198e-07
1.24486e-07
1.2862e-07
1.3258e-07
1.3639e-07
1.40051e-07
1.43564e-07
1.46929e-07
1.50145e-07
1.53215e-07
1.56137e-07
1.58913e-07
1.61543e-07
1.64027e-07
1.66366e-07
1.68556e-07
1.70603e-07
1.72507e-07
1.74269e-07
1.75889e-07
1.77369e-07
1.78703e-07
1.79895e-07
1.80947e-07
1.81859e-07
1.82632e-07
1.83267e-07
1.83764e-07
1.84114e-07
1.84318e-07
1.84385e-07
1.84314e-07
1.84107e-07
1.83765e-07
1.83294e-07
1.82655e-07
1.81875e-07
1.80968e-07
1.79937e-07
1.7874e-07
1.77394e-07
1.75931e-07
1.74332e-07
1.72548e-07
1.70656e-07
1.68629e-07
1.66413e-07
1.64102e-07
1.61618e-07
1.58982e-07
1.56258e-07
1.53294e-07
1.50256e-07
1.47026e-07
1.43663e-07
1.40168e-07
1.36477e-07
1.3271e-07
1.28689e-07
1.24621e-07
1.20288e-07
1.15889e-07
1.11266e-07
1.0653e-07
1.01613e-07
9.65328e-08
9.1321e-08
8.58888e-08
8.03832e-08
7.45906e-08
6.87125e-08
6.56738e-08
6.26351e-08
5.95481e-08
5.63739e-08
5.31996e-08
4.99837e-08
4.66816e-08
4.33795e-08
4.00136e-08
3.65935e-08
3.31693e-08
2.96431e-08
2.61168e-08
2.25119e-08
1.88927e-08
1.51969e-08
1.14691e-08
7.69437e-09
5.79143e-09
3.87217e-09
1.94225e-09
0
)

)


10
(

113
(
0
2.51677e-07
8.24615e-07
1.89158e-06
3.61294e-06
6.22204e-06
9.786e-06
1.38877e-05
1.77054e-05
2.04922e-05
2.20175e-05
2.23333e-05
2.1775e-05
2.06692e-05
1.93615e-05
1.79e-05
1.645e-05
1.51077e-05
1.38917e-05
1.28083e-05
1.18692e-05
1.095e-05
1.009e-05
9.34077e-06
8.69462e-06
8.06e-06
7.45583e-06
6.87667e-06
6.315e-06
5.76583e-06
5.22417e-06
4.64636e-06
4.10333e-06
3.58e-06
3.05182e-06
2.52e-06
2.02909e-06
1.58273e-06
1.21e-06
9.27273e-07
7.19e-07
5.75e-07
5.13364e-07
5.168e-07
5.83818e-07
7.05273e-07
8.78909e-07
1.1e-06
1.36333e-06
1.68e-06
2.04154e-06
2.49417e-06
3.02462e-06
3.60714e-06
4.24286e-06
4.97e-06
5.74857e-06
6.57e-06
7.37e-06
8.12313e-06
8.82937e-06
9.42312e-06
9.95563e-06
1.03744e-05
1.06235e-05
1.08e-05
1.07444e-05
1.06556e-05
1.04333e-05
1.01711e-05
9.84889e-06
9.48632e-06
9.09684e-06
8.69263e-06
8.28211e-06
7.896e-06
7.516e-06
7.168e-06
6.828e-06
6.516e-06
6.211e-06
5.914e-06
5.619e-06
5.29053e-06
4.95368e-06
4.596e-06
4.236e-06
3.815e-06
3.38944e-06
2.98389e-06
2.58353e-06
2.38941e-06
2.19529e-06
2.00625e-06
1.8375e-06
1.66875e-06
1.5e-06
1.35667e-06
1.21333e-06
1.07e-06
9.32917e-07
7.95833e-07
6.74727e-07
5.64273e-07
4.59778e-07
3.64222e-07
2.74571e-07
1.92833e-07
1.27e-07
9.475e-08
5.935e-08
2.8825e-08
0
)


113
(
0
5.24682e-07
1.52405e-06
3.05285e-06
5.05116e-06
7.42644e-06
9.97719e-06
1.24604e-05
1.46526e-05
1.64079e-05
1.76683e-05
1.84086e-05
1.86863e-05
1.85488e-05
1.80397e-05
1.73098e-05
1.64366e-05
1.54819e-05
1.44928e-05
1.35034e-05
1.25532e-05
1.16417e-05
1.07778e-05
9.96319e-06
9.19791e-06
8.48248e-06
7.80509e-06
7.16119e-06
6.54734e-06
5.9613e-06
5.40437e-06
4.87365e-06
4.37126e-06
3.89637e-06
3.45081e-06
3.04039e-06
2.66782e-06
2.33676e-06
2.05086e-06
1.81894e-06
1.63905e-06
1.51114e-06
1.44186e-06
1.42674e-06
1.47214e-06
1.57335e-06
1.73145e-06
1.94657e-06
2.21219e-06
2.52847e-06
2.90664e-06
3.32377e-06
3.78117e-06
4.26985e-06
4.78934e-06
5.32767e-06
5.8721e-06
6.41861e-06
6.94556e-06
7.44867e-06
7.92794e-06
8.33923e-06
8.71386e-06
9.02056e-06
9.24729e-06
9.43976e-06
9.50653e-06
9.54896e-06
9.49404e-06
9.39756e-06
9.23873e-06
9.03162e-06
8.79231e-06
8.51468e-06
8.22062e-06
7.90259e-06
7.57856e-06
7.24545e-06
6.91008e-06
6.57244e-06
6.23422e-06
5.89333e-06
5.55178e-06
5.20356e-06
4.85368e-06
4.49273e-06
4.13055e-06
3.75941e-06
3.38725e-06
3.01477e-06
2.64597e-06
2.46586e-06
2.28574e-06
2.10802e-06
1.93987e-06
1.77171e-06
1.60356e-06
1.45143e-06
1.2993e-06
1.14717e-06
1.01171e-06
8.76245e-07
7.50403e-07
6.30972e-07
5.17497e-07
4.12955e-07