/*--------------------------------*- C++ -*----------------------------------*\
| =========                 |                                                 |
| \\      /  F ield         | OpenFOAM: The Open Source CFD Toolbox           |
|  \\    /   O peration     | Version:  2.3.0                                 |
|   \\  /    A nd           | Web:      www.OpenFOAM.org                      |
|    \\/     M anipulation  |                                                 |
\*---------------------------------------------------------------------------*/
FoamFile
{
    version     2.0;
    format      ascii;
    class       dictionary;
    location    "constant";
    object      HOCN;
}
// * * * * * * * * * * * * * * * * * * * * * * * * * * * * * * * * * * * * * //

HOCN_table
13
(

10
(

113
(
0
8.43125e-18
1.99325e-17
3.3002e-17
4.70991e-17
6.20571e-17
7.77714e-17
9.41168e-17
1.10966e-16
1.28252e-16
1.46132e-16
1.65487e-16
1.86e-16
2.11786e-16
2.43298e-16
2.8305e-16
3.55785e-16
4.55652e-16
6.47726e-16
1.00202e-15
1.50018e-15
2.72439e-15
4.58395e-15
8.02222e-15
1.53202e-14
2.52783e-14
5.91913e-14
1.59112e-13
3.54019e-13
1.65438e-12
5.66937e-12
1.88569e-11
8.42327e-11
1.92686e-10
7.76962e-10
2.20133e-09
4.7393e-09
1.14573e-08
2.07962e-08
3.52266e-08
5.23573e-08
7.02963e-08
8.52652e-08
9.60814e-08
1.02908e-07
1.04486e-07
1.04582e-07
1.00783e-07
9.63492e-08
9.05654e-08
8.45342e-08
7.82241e-08
7.2075e-08
6.60333e-08
6.04066e-08
5.49751e-08
5.0096e-08
4.54426e-08
4.13333e-08
3.74686e-08
3.40219e-08
3.08314e-08
2.79393e-08
2.53224e-08
2.29083e-08
2.0825e-08
1.88266e-08
1.71294e-08
1.54455e-08
1.40818e-08
1.27182e-08
1.15346e-08
1.03852e-08
9.3527e-09
8.38874e-09
7.48321e-09
6.66179e-09
5.86792e-09
5.20863e-09
4.54934e-09
4.06106e-09
3.58969e-09
3.21044e-09
2.88301e-09
2.58969e-09
2.35202e-09
2.12041e-09
1.92317e-09
1.72592e-09
1.54828e-09
1.37124e-09
1.28602e-09
1.20184e-09
1.11765e-09
1.03347e-09
9.5464e-10
8.76831e-10
7.99022e-10
7.22354e-10
6.4862e-10
5.74886e-10
5.01851e-10
4.3394e-10
3.6603e-10
3.00907e-10
2.39333e-10
1.7979e-10
1.25469e-10
7.52964e-11
5.15486e-11
3.09057e-11
1.28857e-11
0
)


113
(
0
9.73554e-18
2.16439e-17
3.48928e-17
4.92942e-17
6.50013e-17
8.30961e-17
1.14175e-16
1.99824e-16
3.83109e-16
1.21402e-15
4.51199e-15
9.74837e-15
4.02711e-14
1.2134e-13
2.75145e-13
7.95994e-13
1.71957e-12
4.16138e-12
9.76004e-12
1.81582e-11
4.15674e-11
7.73987e-11
1.43838e-10
2.69495e-10
4.32169e-10
7.76425e-10
1.25414e-09
1.92392e-09
3.01319e-09
4.36709e-09
6.32195e-09
8.86891e-09
1.18168e-08
1.58604e-08
2.03785e-08
2.55258e-08
3.14268e-08
3.75884e-08
4.40951e-08
5.05374e-08
5.68653e-08
6.25671e-08
6.75974e-08
7.19825e-08
7.48896e-08
7.73026e-08
7.79961e-08
7.8093e-08
7.69223e-08
7.50564e-08
7.24067e-08
6.91852e-08
6.55825e-08
6.16742e-08
5.7622e-08
5.35542e-08
4.94801e-08
4.55917e-08
4.17868e-08
3.82524e-08
3.48838e-08
3.1772e-08
2.88973e-08
2.6204e-08
2.38068e-08
2.15027e-08
1.95288e-08
1.75694e-08
1.59553e-08
1.43413e-08
1.29759e-08
1.16579e-08
1.04911e-08
9.41327e-09
8.41921e-09
7.54574e-09
6.70205e-09
6.00374e-09
5.30544e-09
4.74626e-09
4.20083e-09
3.73824e-09
3.32224e-09
2.9442e-09
2.62808e-09
2.32245e-09
2.0763e-09
1.83016e-09
1.62621e-09
1.42357e-09
1.332e-09
1.2435e-09
1.15501e-09
1.06652e-09
9.8479e-10
9.04351e-10
8.23911e-10
7.45201e-10
6.70938e-10
5.96676e-10
5.23112e-10
4.54676e-10
3.86239e-10
3.20449e-10
2.58025e-10
1.97299e-10
1.40938e-10
8.82892e-11
6.31392e-11
4.04971e-11
1.94654e-11
0
)


113
(
0
2.79023e-13
9.41276e-13
2.37172e-12
5.00786e-12
9.45401e-12
1.68263e-11
3.02201e-11
4.97832e-11
7.56029e-11
1.18015e-10
1.76733e-10
2.48265e-10
3.65413e-10
5.08952e-10
6.90468e-10
9.45518e-10
1.23964e-09
1.63474e-09
2.10423e-09
2.6397e-09
3.36508e-09
4.17166e-09
5.14934e-09
6.26685e-09
7.46836e-09
8.93175e-09
1.0518e-08
1.22809e-08
1.42336e-08
1.62843e-08
1.85251e-08
2.08925e-08
2.33433e-08
2.59119e-08
2.85088e-08
3.11433e-08
3.37747e-08
3.63744e-08
3.88895e-08
4.12775e-08
4.35749e-08
4.56262e-08
4.7491e-08
4.91764e-08
5.04849e-08
5.16685e-08
5.2423e-08
5.30015e-08
5.32058e-08
5.31497e-08
5.28001e-08
5.2136e-08
5.12623e-08
5.00894e-08
4.87756e-08
4.72217e-08
4.55699e-08
4.36975e-08
4.17261e-08
3.96705e-08
3.75632e-08
3.54364e-08
3.32915e-08
3.11606e-08
2.90525e-08
2.69714e-08
2.4986e-08
2.30076e-08
2.11965e-08
1.93853e-08
1.77493e-08
1.61466e-08
1.4683e-08
1.33011e-08
1.20054e-08
1.08339e-08
9.69639e-09
8.72465e-09
7.75291e-09
6.95097e-09
6.16582e-09
5.47808e-09
4.84514e-09
4.26199e-09
3.76008e-09
3.27388e-09
2.87671e-09
2.47953e-09
2.16004e-09
1.84294e-09
1.70718e-09
1.57862e-09
1.45006e-09
1.32149e-09
1.21138e-09
1.10478e-09
9.98176e-10
8.95479e-10
8.02822e-10
7.10165e-10
6.19008e-10
5.38842e-10
4.58676e-10
3.82248e-10
3.10577e-10
2.40804e-10
1.75914e-10
1.14884e-10
8.55192e-11
5.79414e-11
3.03599e-11
0
)


113
(
0
4.4608e-11
1.0092e-10
1.77442e-10
2.76127e-10
3.99229e-10
5.51967e-10
7.43969e-10
9.69117e-10
1.22493e-09
1.5412e-09
1.8998e-09
2.29166e-09
2.78167e-09
3.30302e-09
3.86949e-09
4.53663e-09
5.24356e-09
6.02194e-09
6.86171e-09
7.75593e-09
8.71496e-09
9.71345e-09
1.08037e-08
1.19247e-08
1.30651e-08
1.43186e-08
1.55965e-08
1.69097e-08
1.8234e-08
1.95763e-08
2.0975e-08
2.23472e-08
2.37022e-08
2.50487e-08
2.6381e-08
2.76946e-08
2.89411e-08
3.01533e-08
3.13049e-08
3.2376e-08
3.33967e-08
3.43139e-08
3.51528e-08
3.59167e-08
3.65327e-08
3.71006e-08
3.75077e-08
3.78496e-08
3.80529e-08
3.81539e-08
3.81395e-08
3.79833e-08
3.77326e-08
3.73819e-08
3.69843e-08
3.64156e-08
3.57771e-08
3.5003e-08
3.41681e-08
3.32631e-08
3.23151e-08
3.12915e-08
3.01981e-08
2.90722e-08
2.78933e-08
2.66998e-08
2.54546e-08
2.42097e-08
2.29725e-08
2.17354e-08
2.04933e-08
1.92504e-08
1.80343e-08
1.68339e-08
1.56638e-08
1.45371e-08
1.34242e-08
1.23788e-08
1.13333e-08
1.03756e-08
9.42668e-09
8.55175e-09
7.71847e-09
6.9234e-09
6.19067e-09
5.47303e-09
4.84093e-09
4.20882e-09
3.67661e-09
3.1475e-09
2.91493e-09
2.69246e-09
2.47e-09
2.24753e-09
2.05475e-09
1.86763e-09
1.6805e-09
1.50142e-09
1.34302e-09
1.18463e-09
1.02899e-09
8.93595e-10
7.58198e-10
6.30838e-10
5.13705e-10
4.00375e-10
2.96822e-10
1.98228e-10
1.50237e-10
1.02569e-10
5.34508e-11
0
)


113
(
0
2.41176e-10
4.81891e-10
7.46192e-10
1.03964e-09
1.36404e-09
1.72305e-09
2.12187e-09
2.55023e-09
3.00473e-09
3.50448e-09
4.03164e-09
4.58035e-09
5.17717e-09
5.79287e-09
6.43572e-09
7.11291e-09
7.80527e-09
8.5298e-09
9.27204e-09
1.003e-08
1.08125e-08
1.16031e-08
1.2409e-08
1.32443e-08
1.40965e-08
1.4965e-08
1.58092e-08
1.66185e-08
1.74708e-08
1.83155e-08
1.90913e-08
1.98523e-08
2.06045e-08
2.13801e-08
2.21014e-08
2.27507e-08
2.34218e-08
2.40676e-08
2.46344e-08
2.51747e-08
2.56946e-08
2.61518e-08
2.65694e-08
2.6949e-08
2.72626e-08
2.75534e-08
2.77601e-08
2.79435e-08
2.80774e-08
2.81524e-08
2.81608e-08
2.81353e-08
2.80872e-08
2.79476e-08
2.7765e-08
2.75012e-08
2.72042e-08
2.68653e-08
2.65077e-08
2.60898e-08
2.5635e-08
2.51337e-08
2.45894e-08
2.40067e-08
2.33615e-08
2.27115e-08
2.20449e-08
2.13754e-08
2.06355e-08
1.98955e-08
1.91081e-08
1.83116e-08
1.75019e-08
1.66845e-08
1.58686e-08
1.50549e-08
1.42422e-08
1.34348e-08
1.26275e-08
1.18349e-08
1.10438e-08
1.02705e-08
9.50736e-09
8.75855e-09
8.03318e-09
7.31463e-09
6.6347e-09
5.95477e-09
5.32381e-09
4.69436e-09
4.39971e-09
4.1114e-09
3.82309e-09
3.53478e-09
3.26863e-09
3.0067e-09
2.74478e-09
2.48996e-09
2.2534e-09
2.01685e-09
1.78305e-09
1.56946e-09
1.35587e-09
1.15022e-09
9.54663e-10
7.61949e-10
5.76539e-10
3.91676e-10
2.99127e-10
2.03614e-10
1.04952e-10
0
)


113
(
0
4.4372e-10
8.54387e-10
1.2585e-09
1.66862e-09
2.08965e-09
2.52536e-09
2.97907e-09
3.44591e-09
3.92418e-09
4.42093e-09
4.9276e-09
5.44206e-09
5.97141e-09
6.50557e-09
7.04663e-09
7.59438e-09
8.14466e-09
8.69904e-09
9.2542e-09
9.81006e-09
1.03642e-08
1.09167e-08
1.14652e-08
1.20083e-08
1.2548e-08
1.30761e-08
1.35981e-08
1.41113e-08
1.46103e-08
1.51014e-08
1.55761e-08
1.60367e-08
1.64854e-08
1.6803e-08
1.71534e-08
1.75473e-08
1.79158e-08
1.82712e-08
1.86034e-08
1.89126e-08
1.92071e-08
1.94708e-08
1.98738e-08
2.04107e-08
2.06834e-08
2.09011e-08
2.10796e-08
2.1228e-08
2.13121e-08
2.13617e-08
2.13723e-08
2.13367e-08
2.12704e-08
2.1179e-08
2.1076e-08
2.0706e-08
2.02271e-08
1.99454e-08
1.97523e-08
1.95264e-08
1.92806e-08
1.90081e-08
1.87111e-08
1.83957e-08
1.805e-08
1.77099e-08
1.7389e-08
1.70633e-08
1.66235e-08
1.61836e-08
1.57134e-08
1.52375e-08
1.47417e-08
1.42343e-08
1.37161e-08
1.31824e-08
1.26452e-08
1.20906e-08
1.1536e-08
1.09678e-08
1.03983e-08
9.82316e-09
9.24489e-09
8.66577e-09
8.08525e-09
7.50537e-09
6.92916e-09
6.35294e-09
5.78709e-09
5.22156e-09
4.94497e-09
4.67033e-09
4.3957e-09
4.12106e-09
3.85477e-09
3.59007e-09
3.32537e-09
3.06346e-09
2.80872e-09
2.55399e-09
2.30015e-09
2.05284e-09
1.80554e-09
1.55913e-09
1.31386e-09
1.06718e-09
8.16869e-10
5.59171e-10
4.27875e-10
2.90314e-10
1.48614e-10
0
)


113
(
0
5.03779e-10
9.65021e-10
1.39948e-09
1.81946e-09
2.23068e-09
2.63646e-09
3.0396e-09
3.44196e-09
3.8439e-09
4.24584e-09
4.64772e-09
5.04956e-09
5.45048e-09
5.85052e-09
6.2493e-09
6.6452e-09
7.03949e-09
7.4295e-09
7.81599e-09
8.19933e-09
8.57538e-09
8.92906e-09
9.22136e-09
9.54592e-09
9.88834e-09
1.02175e-08
1.05406e-08
1.08551e-08
1.11568e-08
1.14519e-08
1.17336e-08
1.20044e-08
1.22679e-08
1.2513e-08
1.27497e-08
1.29752e-08
1.31835e-08
1.33831e-08
1.35674e-08
1.37368e-08
1.38968e-08
1.40372e-08
1.41655e-08
1.42823e-08
1.43782e-08
1.44672e-08
1.45328e-08
1.45897e-08
1.46279e-08
1.46527e-08
1.46626e-08
1.46551e-08
1.4636e-08
1.45967e-08
1.45478e-08
1.44774e-08
1.43982e-08
1.42977e-08
1.41876e-08
1.40584e-08
1.39174e-08
1.37604e-08
1.35886e-08
1.34053e-08
1.32031e-08
1.29945e-08
1.27628e-08
1.25299e-08
1.22696e-08
1.20093e-08
1.17262e-08
1.14386e-08
1.11349e-08
1.08218e-08
1.04988e-08
1.01619e-08
9.83083e-09
9.52896e-09
9.22708e-09
8.84676e-09
8.45867e-09
8.0611e-09
7.6582e-09
7.25075e-09
6.8359e-09
6.41969e-09
5.99583e-09
5.57196e-09
5.14188e-09
4.71161e-09
4.49462e-09
4.27705e-09
4.05947e-09
3.84189e-09
3.6221e-09
3.40188e-09
3.18167e-09
2.96028e-09
2.73589e-09
2.5115e-09
2.28626e-09
2.05477e-09
1.82329e-09
1.58704e-09
1.34473e-09
1.09848e-09
8.42126e-10
5.75772e-10
4.39483e-10
2.97015e-10
1.5113e-10
0
)


113
(
0
4.17771e-10
8.05625e-10
1.16871e-09
1.51376e-09
1.84418e-09
2.16136e-09
2.46634e-09
2.76356e-09
3.05427e-09
3.33514e-09
3.61066e-09
3.88198e-09
4.1444e-09
4.40332e-09
4.65722e-09
4.90438e-09
5.14842e-09
5.3854e-09
5.61779e-09
5.84612e-09
6.06641e-09
6.28342e-09
6.49361e-09
6.6977e-09
6.89816e-09
7.08895e-09
7.27555e-09
7.45613e-09
7.62829e-09
7.79606e-09
7.95527e-09
8.10766e-09
8.25546e-09
8.39203e-09
8.52356e-09
8.64842e-09
8.76311e-09
8.87272e-09
8.97344e-09
9.06561e-09
9.15243e-09
9.22809e-09
9.29697e-09
9.35936e-09
9.41004e-09
9.4569e-09
9.4908e-09
9.51985e-09
9.53856e-09
9.54994e-09
9.55305e-09
9.54658e-09
9.53372e-09
9.50971e-09
9.48045e-09
9.43926e-09
9.3932e-09
9.33531e-09
9.27211e-09
9.19815e-09
9.11761e-09
9.028e-09
8.93003e-09
8.82544e-09
8.71006e-09
8.59089e-09
8.45828e-09
8.325e-09
8.17543e-09
8.02586e-09
7.86235e-09
7.69619e-09
7.51988e-09
7.3376e-09
7.14893e-09
6.95105e-09
6.7506e-09
6.5376e-09
6.32461e-09
6.09833e-09
5.87073e-09
5.63411e-09
5.39242e-09
5.14552e-09
4.89011e-09
4.63265e-09
4.36356e-09
4.09448e-09
3.81167e-09
3.52845e-09
3.38102e-09
3.23175e-09
3.08248e-09
2.93321e-09
2.7767e-09
2.6188e-09
2.46091e-09
2.30023e-09
2.13239e-09
1.96454e-09
1.79533e-09
1.61609e-09
1.43686e-09
1.25216e-09
1.06051e-09
8.65396e-10
6.61351e-10
4.50041e-10
3.42174e-10
2.30395e-10
1.16644e-10
0
)


113
(
0
2.41889e-10
4.71391e-10
6.89073e-10
8.96952e-10
1.096e-09
1.28622e-09
1.46731e-09
1.6421e-09
1.81147e-09
1.97205e-09
2.12763e-09
2.27928e-09
2.42249e-09
2.56244e-09
2.6977e-09
2.82692e-09
2.95341e-09
3.07392e-09
3.19079e-09
3.30443e-09
3.41213e-09
3.5175e-09
3.61815e-09
3.71484e-09
3.80918e-09
3.89761e-09
3.9836e-09
4.06608e-09
4.14391e-09
4.21936e-09
4.29026e-09
4.35767e-09
4.42273e-09
4.48221e-09
4.53926e-09
4.59309e-09
4.64213e-09
4.6888e-09
4.73135e-09
4.77003e-09
4.80629e-09
4.83754e-09
4.8658e-09
4.89118e-09
4.91145e-09
4.93004e-09
4.94301e-09
4.95388e-09
4.9603e-09
4.96356e-09
4.96327e-09
4.95887e-09
4.95174e-09
4.93983e-09
4.92566e-09
4.90636e-09
4.88497e-09
4.85846e-09
4.82966e-09
4.79616e-09
4.75978e-09
4.7194e-09
4.67531e-09
4.62824e-09
4.57631e-09
4.52263e-09
4.46274e-09
4.40254e-09
4.33458e-09
4.26661e-09
4.19175e-09
4.11557e-09
4.03412e-09
3.94957e-09
3.86148e-09
3.76832e-09
3.67364e-09
3.57152e-09
3.46941e-09
3.35877e-09
3.24729e-09
3.12948e-09
3.00811e-09
2.88276e-09
2.7509e-09
2.61736e-09
2.47427e-09
2.33119e-09
2.17642e-09
2.02129e-09
1.93883e-09
1.85483e-09
1.77082e-09
1.68682e-09
1.59712e-09
1.50634e-09
1.41556e-09
1.32282e-09
1.22505e-09
1.12729e-09
1.02868e-09
9.23953e-10
8.19224e-10
7.11611e-10
6.00328e-10
4.87443e-10
3.70438e-10
2.50441e-10
1.89543e-10
1.27165e-10
6.40837e-11
0
)


113
(
0
2.11745e-11
4.18406e-11
6.1973e-11
8.16216e-11
1.00801e-10
1.19477e-10
1.37582e-10
1.55264e-10
1.72573e-10
1.89229e-10
2.05484e-10
2.21424e-10
2.36639e-10
2.51557e-10
2.66047e-10
2.79958e-10
2.93601e-10
3.06645e-10
3.19312e-10
3.31644e-10
3.43344e-10
3.54792e-10
3.65728e-10
3.76227e-10
3.86468e-10
3.9605e-10
4.05359e-10
4.14277e-10
4.22671e-10
4.30798e-10
4.38415e-10
4.4564e-10
4.52602e-10
4.58941e-10
4.6501e-10
4.7072e-10
4.75899e-10
4.80817e-10
4.85282e-10
4.89322e-10
4.93096e-10
4.96325e-10
4.99229e-10
5.01821e-10
5.0386e-10
5.05718e-10
5.06971e-10
5.07999e-10
5.08549e-10
5.08761e-10
5.08594e-10
5.07987e-10
5.07088e-10
5.05677e-10
5.04026e-10
5.01826e-10
4.99402e-10
4.96429e-10
4.9321e-10
4.89487e-10
4.85454e-10
4.80989e-10
4.76123e-10
4.70935e-10
4.65221e-10
4.59316e-10
4.52736e-10
4.46121e-10
4.38661e-10
4.31201e-10
4.22988e-10
4.14632e-10
4.05702e-10
3.96435e-10
3.86787e-10
3.7659e-10
3.66232e-10
3.55085e-10
3.43937e-10
3.31905e-10
3.19785e-10
3.07031e-10
2.93922e-10
2.80433e-10
2.66324e-10
2.52066e-10
2.36957e-10
2.21848e-10
2.05781e-10
1.89685e-10
1.81273e-10
1.72747e-10
1.64221e-10
1.55694e-10
1.4679e-10
1.37813e-10
1.28837e-10
1.19745e-10
1.10356e-10
1.00967e-10
9.15345e-11
8.17811e-11
7.20277e-11
6.21394e-11
5.20792e-11
4.19511e-11
3.16484e-11
2.12285e-11
1.59835e-11
1.0684e-11
5.35947e-12
0
)

)


10
(

113
(
0
1.0102e-16
2.41748e-16
4.03122e-16
5.77838e-16
7.63291e-16
9.57677e-16
1.15975e-15
1.36942e-15
1.58886e-15
1.82414e-15
2.0878e-15
2.40249e-15
2.80562e-15
3.35575e-15
4.17818e-15
5.56009e-15
7.90309e-15
1.20458e-14
1.9656e-14
3.41137e-14
6.2287e-14
1.18038e-13
2.56789e-13
5.89421e-13
1.41296e-12
3.49236e-12
8.78984e-12
2.22669e-11
5.61237e-11
1.39268e-10
3.37402e-10
7.93025e-10
1.79089e-09
3.85865e-09
7.90821e-09
1.50417e-08
2.62434e-08
4.18681e-08
6.09317e-08
8.09915e-08
9.86679e-08
1.11421e-07
1.185e-07
1.20536e-07
1.18743e-07
1.1438e-07
1.08474e-07
1.01713e-07
9.46411e-08
8.75574e-08
8.06291e-08
7.39573e-08
6.76008e-08
6.1592e-08
5.6061e-08
5.09337e-08
4.61648e-08
4.17313e-08
3.77263e-08
3.40709e-08
3.06792e-08
2.7581e-08
2.48552e-08
2.23407e-08
2.00853e-08
1.81758e-08
1.64301e-08
1.4967e-08
1.37101e-08
1.25729e-08
1.16807e-08
1.08436e-08
1.01424e-08
9.50252e-09
8.92299e-09
8.39961e-09
7.89795e-09
7.4403e-09
6.98938e-09
6.56672e-09
6.1487e-09
5.7461e-09
5.34911e-09
4.96107e-09
4.57957e-09
4.20335e-09
3.83535e-09
3.47009e-09
3.11601e-09
2.76567e-09
2.59488e-09
2.42409e-09
2.25574e-09
2.09181e-09
1.92789e-09
1.76646e-09
1.61022e-09
1.45397e-09
1.30235e-09
1.15467e-09
1.00736e-09
8.6936e-10
7.31363e-10
6.02301e-10
4.74879e-10
3.58532e-10
2.4821e-10
1.47877e-10
1.01702e-10
6.09336e-11
2.54572e-11
0
)


113
(
0
1.17642e-16
2.63521e-16
4.27695e-16
6.07143e-16
8.06088e-16
1.04491e-15
1.40139e-15
2.13293e-15
4.0343e-15
9.70047e-15
2.63355e-14
7.19198e-14
1.86891e-13
4.52321e-13
1.07421e-12
2.64599e-12
6.12299e-12
1.3344e-11
2.74964e-11
5.38313e-11
1.00644e-10
1.80844e-10
3.28329e-10
5.71578e-10
9.56825e-10
1.54464e-09
2.40947e-09
3.63966e-09
5.33311e-09
7.59205e-09
1.0518e-08
1.41929e-08
1.86689e-08
2.39534e-08
3.002e-08
3.67287e-08
4.39027e-08
5.13279e-08
5.87262e-08
6.58318e-08
7.23334e-08
7.7989e-08
8.26233e-08
8.60858e-08
8.82744e-08
8.92034e-08
8.89502e-08
8.75316e-08
8.51091e-08
8.19072e-08
7.80998e-08
7.38618e-08
6.93405e-08
6.46565e-08
5.99381e-08
5.53099e-08
5.0817e-08
4.64875e-08
4.24334e-08
3.8655e-08
3.51007e-08
3.18099e-08
2.88731e-08
2.61357e-08
2.36424e-08
2.14657e-08
1.94386e-08
1.76692e-08
1.60973e-08
1.46399e-08
1.34428e-08
1.23124e-08
1.13504e-08
1.04788e-08
9.6961e-09
9.01101e-09
8.36368e-09
7.80556e-09
7.26153e-09
6.7801e-09
6.30902e-09
5.87238e-09
5.44738e-09
5.04088e-09
4.64599e-09
4.26045e-09
3.88694e-09
3.51743e-09
3.16175e-09
2.81015e-09
2.6391e-09
2.46805e-09
2.29951e-09
2.13551e-09
1.97152e-09
1.81002e-09
1.65368e-09
1.49734e-09
1.34552e-09
1.19756e-09
1.04995e-09
9.11141e-10
7.72336e-10
6.41907e-10
5.13015e-10
3.94366e-10
2.80513e-10
1.74852e-10
1.25403e-10
8.00798e-11
3.84445e-11
0
)


113
(
0
4.81684e-13
1.61187e-12
4.04007e-12
8.40762e-12
1.58588e-11
2.82381e-11
4.7941e-11
7.78752e-11
1.21793e-10
1.85078e-10
2.7321e-10
3.92714e-10
5.51652e-10
7.5921e-10
1.03129e-09
1.38711e-09
1.83016e-09
2.37318e-09
3.03062e-09
3.81715e-09
4.74694e-09
5.8361e-09
7.12423e-09
8.59248e-09
1.02347e-08
1.20687e-08
1.41004e-08
1.63261e-08
1.87367e-08
2.13129e-08
2.40321e-08
2.68749e-08
2.98134e-08
3.28074e-08
3.5823e-08
3.8826e-08
4.17843e-08
4.46486e-08
4.73878e-08
4.99434e-08
5.22896e-08
5.43832e-08
5.61949e-08
5.77349e-08
5.89571e-08
5.98224e-08
6.03832e-08
6.05926e-08
6.04415e-08
5.99617e-08
5.91666e-08
5.80962e-08
5.67788e-08
5.52267e-08
5.34151e-08
5.14294e-08
4.93154e-08
4.70981e-08
4.47767e-08
4.24023e-08
4.00049e-08
3.75967e-08
3.522e-08
3.28804e-08
3.05938e-08
2.84125e-08
2.62914e-08
2.4286e-08
2.23928e-08
2.05648e-08
1.89208e-08
1.7333e-08
1.58906e-08
1.45427e-08
1.32877e-08
1.2161e-08
1.1084e-08
1.01499e-08
9.2406e-09
8.45818e-09
7.70161e-09
7.03111e-09
6.39559e-09
5.81573e-09
5.27567e-09
4.76765e-09
4.30211e-09
3.85073e-09
3.44096e-09
3.04167e-09
2.85415e-09
2.66663e-09
2.48361e-09
2.3087e-09
2.1338e-09
1.96221e-09
1.79746e-09
1.63271e-09
1.47268e-09
1.31665e-09
1.16103e-09
1.01574e-09
8.70451e-10
7.32369e-10
5.95603e-10
4.66785e-10
3.42061e-10
2.23968e-10
1.67456e-10
1.13545e-10
5.97241e-11
0
)


113
(
0
6.07812e-11
1.36982e-10
2.40267e-10
3.7235e-10
5.37814e-10
7.41624e-10
9.88579e-10
1.28318e-09
1.62952e-09
2.03132e-09
2.49198e-09
3.01927e-09
3.61742e-09
4.28073e-09
5.01528e-09
5.82545e-09
6.70729e-09
7.66097e-09
8.68268e-09
9.77574e-09
1.095e-08
1.21919e-08
1.35017e-08
1.48584e-08
1.62662e-08
1.77253e-08
1.92334e-08
2.07689e-08
2.23109e-08
2.3866e-08
2.54319e-08
2.70081e-08
2.85699e-08
3.00996e-08
3.15883e-08
3.30296e-08
3.44012e-08
3.57084e-08
3.69445e-08
3.80944e-08
3.91553e-08
4.01027e-08
4.0945e-08
4.16657e-08
4.22873e-08
4.27835e-08
4.31354e-08
4.33755e-08
4.34891e-08
4.3463e-08
4.32991e-08
4.30248e-08
4.26453e-08
4.21425e-08
4.15011e-08
4.07708e-08
3.99573e-08
3.90639e-08
3.8067e-08
3.69883e-08
3.58504e-08
3.46492e-08
3.33961e-08
3.21154e-08
3.08014e-08
2.94534e-08
2.80945e-08
2.6722e-08
2.53525e-08
2.39847e-08
2.26399e-08
2.13065e-08
2.00043e-08
1.87302e-08
1.74838e-08
1.62903e-08
1.51173e-08
1.40107e-08
1.2917e-08
1.19006e-08
1.09056e-08
9.98212e-09
9.091e-09
8.25134e-09
7.45545e-09
6.69481e-09
5.98854e-09
5.30041e-09
4.69187e-09
4.10234e-09
3.82953e-09
3.55672e-09
3.29349e-09
3.04759e-09
2.8017e-09
2.56328e-09
2.34032e-09
2.11736e-09
1.90488e-09
1.70132e-09
1.49839e-09
1.31141e-09
1.12442e-09
9.49758e-10
7.77332e-10
6.17158e-10
4.61645e-10
3.11935e-10
2.38296e-10
1.63717e-10
8.59027e-11
0
)


113
(
0
3.03108e-10
6.0343e-10
9.32697e-10
1.29683e-09
1.69987e-09
2.14372e-09
2.62862e-09
3.15391e-09
3.7185e-09
4.32111e-09
4.96044e-09
5.63512e-09
6.34378e-09
7.08494e-09
7.85914e-09
8.66571e-09
9.49873e-09
1.0356e-08
1.12353e-08
1.21342e-08
1.305e-08
1.39801e-08
1.49225e-08
1.58836e-08
1.68564e-08
1.78538e-08
1.88354e-08
1.979e-08
2.07376e-08
2.16618e-08
2.2571e-08
2.3452e-08
2.43084e-08
2.5149e-08
2.59455e-08
2.66826e-08
2.7392e-08
2.80765e-08
2.87282e-08
2.93295e-08
2.98566e-08
3.03409e-08
3.07799e-08
3.11692e-08
3.14962e-08
3.17654e-08
3.1998e-08
3.21442e-08
3.2254e-08
3.22974e-08
3.22757e-08
3.21969e-08
3.20634e-08
3.18736e-08
3.16332e-08
3.13374e-08
3.09835e-08
3.05754e-08
3.01214e-08
2.96237e-08
2.90851e-08
2.84938e-08
2.78508e-08
2.71828e-08
2.6486e-08
2.57415e-08
2.4979e-08
2.41904e-08
2.33712e-08
2.25343e-08
2.16519e-08
2.07656e-08
1.9873e-08
1.89766e-08
1.80765e-08
1.71568e-08
1.62295e-08
1.53335e-08
1.44416e-08
1.35625e-08
1.26884e-08
1.18308e-08
1.0984e-08
1.01545e-08
9.34352e-09
8.54748e-09
7.77955e-09
7.02098e-09
6.3021e-09
5.59574e-09
5.25715e-09
4.91856e-09
4.58739e-09
4.26964e-09
3.95188e-09
3.64083e-09
3.34367e-09
3.0465e-09
2.76007e-09
2.48279e-09
2.2062e-09
1.94721e-09
1.68822e-09
1.44215e-09
1.1984e-09
9.64588e-10
7.32473e-10
5.00638e-10
3.83419e-10
2.61991e-10
1.35431e-10
0
)


113
(
0
5.36709e-10
1.03054e-09
1.51587e-09
2.00743e-09
2.51196e-09
3.03292e-09
3.57149e-09
4.12733e-09
4.69931e-09
5.28594e-09
5.88564e-09
6.49679e-09
7.11784e-09
7.74728e-09
8.38399e-09
9.02633e-09
9.67202e-09
1.03196e-08
1.09678e-08
1.16152e-08
1.22603e-08
1.29017e-08
1.35371e-08
1.41655e-08
1.47858e-08
1.53964e-08
1.59962e-08
1.65837e-08
1.71576e-08
1.77166e-08
1.82596e-08
1.87852e-08
1.92836e-08
1.9598e-08
2.00602e-08
2.05008e-08
2.09192e-08
2.13144e-08
2.16857e-08
2.20325e-08
2.23533e-08
2.2648e-08
2.2982e-08
2.36788e-08
2.39561e-08
2.4196e-08
2.43966e-08
2.45315e-08
2.46321e-08
2.46824e-08
2.46915e-08
2.4656e-08
2.45713e-08
2.44349e-08
2.41939e-08
2.40396e-08
2.3644e-08
2.30069e-08
2.27712e-08
2.25058e-08
2.22173e-08
2.19027e-08
2.15539e-08
2.11859e-08
2.07942e-08
2.04402e-08
2.00609e-08
1.9589e-08
1.90965e-08
1.85919e-08
1.80577e-08
1.75151e-08
1.69514e-08
1.63749e-08
1.57857e-08
1.51805e-08
1.45692e-08
1.3941e-08
1.331e-08
1.26657e-08
1.2019e-08
1.13644e-08
1.07077e-08
1.00473e-08
9.38631e-09
8.72474e-09
8.06567e-09
7.40743e-09
6.75685e-09
6.10981e-09
5.79045e-09
5.47108e-09
5.15438e-09
4.84249e-09
4.53059e-09
4.22139e-09
3.91774e-09
3.61409e-09
3.31461e-09
3.01869e-09
2.72298e-09
2.43259e-09
2.14221e-09
1.85319e-09
1.56438e-09
1.27201e-09
9.75078e-10
6.69268e-10
5.12091e-10
3.48197e-10
1.78354e-10
0
)


113
(
0
5.97868e-10
1.14315e-09
1.65624e-09
2.15181e-09
2.63644e-09
3.11457e-09
3.58922e-09
4.06217e-09
4.53434e-09
5.00609e-09
5.47741e-09
5.94806e-09
6.41768e-09
6.88578e-09
7.35165e-09
7.81434e-09
8.27352e-09
8.72858e-09
9.17894e-09
9.624e-09
1.00632e-08
1.04958e-08
1.08064e-08
1.11957e-08
1.15895e-08
1.19735e-08
1.2347e-08
1.27094e-08
1.30603e-08
1.3399e-08
1.37253e-08
1.40385e-08
1.43382e-08
1.4624e-08
1.48952e-08
1.51517e-08
1.53933e-08
1.56197e-08
1.58306e-08
1.60258e-08
1.62044e-08
1.63665e-08
1.65121e-08
1.66411e-08
1.67534e-08
1.68487e-08
1.69271e-08
1.69873e-08
1.70294e-08
1.70543e-08
1.70617e-08
1.70521e-08
1.70257e-08
1.69828e-08
1.69191e-08
1.68378e-08
1.67407e-08
1.66284e-08
1.64957e-08
1.63452e-08
1.61807e-08
1.60001e-08
1.57981e-08
1.55838e-08
1.53543e-08
1.51041e-08
1.48435e-08
1.45648e-08
1.42706e-08
1.39675e-08
1.36411e-08
1.3308e-08
1.29573e-08
1.25952e-08
1.22218e-08
1.18329e-08
1.14379e-08
1.10841e-08
1.07273e-08
1.02831e-08
9.83551e-09
9.37647e-09
8.91246e-09
8.44055e-09
7.9627e-09
7.48008e-09
6.99104e-09
6.49985e-09
6.00203e-09
5.50254e-09
5.25087e-09
4.99919e-09
4.74656e-09
4.49222e-09
4.23787e-09
3.98243e-09
3.72474e-09
3.46705e-09
3.20672e-09
2.94414e-09
2.68129e-09
2.41146e-09
2.14163e-09
1.86321e-09
1.5832e-09
1.29055e-09
9.90483e-10
6.78193e-10
5.17221e-10
3.50042e-10
1.78105e-10
0
)


113
(
0
4.92105e-10
9.47975e-10
1.37444e-09
1.7797e-09
2.16705e-09
2.53921e-09
2.89851e-09
3.24686e-09
3.58574e-09
3.91625e-09
4.23919e-09
4.55516e-09
4.86455e-09
5.16766e-09
5.46426e-09
5.75409e-09
6.03795e-09
6.31582e-09
6.58762e-09
6.85327e-09
7.11263e-09
7.36554e-09
7.61083e-09
7.84938e-09
8.08103e-09
8.30558e-09
8.52288e-09
8.73272e-09
8.93494e-09
9.12935e-09
9.3158e-09
9.49409e-09
9.66409e-09
9.82562e-09
9.97836e-09
1.01224e-08
1.02576e-08
1.0384e-08
1.05013e-08
1.06096e-08
1.07085e-08
1.07979e-08
1.08779e-08
1.09486e-08
1.10099e-08
1.10616e-08
1.1104e-08
1.11361e-08
1.11581e-08
1.11705e-08
1.11733e-08
1.11665e-08
1.11503e-08
1.1125e-08
1.1088e-08
1.10412e-08
1.09854e-08
1.09212e-08
1.08453e-08
1.07593e-08
1.06654e-08
1.05622e-08
1.04467e-08
1.0324e-08
1.01925e-08
1.00487e-08
9.89883e-09
9.73807e-09
9.56795e-09
9.39239e-09
9.2025e-09
9.00833e-09
8.80307e-09
8.59038e-09
8.37038e-09
8.1399e-09
7.90536e-09
7.65785e-09
7.40797e-09
7.14519e-09
6.87927e-09
6.60287e-09
6.32134e-09
6.03164e-09
5.73467e-09
5.43184e-09
5.11913e-09
4.80313e-09
4.4737e-09
4.13992e-09
3.96795e-09
3.79598e-09
3.62122e-09
3.44138e-09
3.26155e-09
3.07885e-09
2.89022e-09
2.70159e-09
2.50763e-09
2.30912e-09
2.1102e-09
1.90072e-09
1.69125e-09
1.47176e-09
1.25043e-09
1.01723e-09
7.78165e-10
5.29987e-10
4.02588e-10
2.71333e-10
1.37344e-10
0
)


113
(
0
2.84519e-10
5.54177e-10
8.09851e-10
1.05408e-09
1.28752e-09
1.51081e-09
1.72468e-09
1.92987e-09
2.12705e-09
2.31682e-09
2.49965e-09
2.67599e-09
2.84617e-09
3.0105e-09
3.16883e-09
3.32114e-09
3.4683e-09
3.61046e-09
3.74777e-09
3.88032e-09
4.0082e-09
4.13147e-09
4.24955e-09
4.36323e-09
4.47256e-09
4.57757e-09
4.67828e-09
4.77473e-09
4.86693e-09
4.95489e-09
5.03862e-09
5.11814e-09
5.19345e-09
5.26454e-09
5.33134e-09
5.39394e-09
5.45238e-09
5.50666e-09
5.55678e-09
5.60274e-09
5.64441e-09
5.68185e-09
5.71512e-09
5.74422e-09
5.76915e-09
5.78994e-09
5.80658e-09
5.81879e-09
5.82662e-09
5.83028e-09
5.82976e-09
5.82511e-09
5.81642e-09
5.80378e-09
5.78606e-09
5.76409e-09
5.73826e-09
5.7087e-09
5.67409e-09
5.63501e-09
5.59241e-09
5.54572e-09
5.49349e-09
5.43802e-09
5.37852e-09
5.31337e-09
5.24537e-09
5.17224e-09
5.09458e-09
5.0143e-09
4.92689e-09
4.83728e-09
4.74194e-09
4.64262e-09
4.53936e-09
4.43016e-09
4.31867e-09
4.1994e-09
4.07867e-09
3.9497e-09
3.81856e-09
3.68025e-09
3.53816e-09
3.39006e-09
3.23624e-09
3.07783e-09
2.91127e-09
2.74198e-09
2.56132e-09
2.377e-09
2.28056e-09
2.18412e-09
2.08543e-09
1.98264e-09
1.87985e-09
1.77492e-09
1.66555e-09
1.55618e-09
1.44319e-09
1.32713e-09
1.21081e-09
1.08812e-09
9.65421e-10
8.37338e-10
7.08273e-10
5.73504e-10
4.36188e-10
2.95033e-10
2.23135e-10
1.49792e-10
7.54734e-11
0
)


113
(
0
2.4968e-11
4.9327e-11
7.30532e-11
9.62142e-11
1.18799e-10
1.408e-10
1.62216e-10
1.83056e-10
2.0333e-10
2.23049e-10
2.42223e-10
2.60862e-10
2.78971e-10
2.96559e-10
3.13592e-10
3.30048e-10
3.45995e-10
3.61438e-10
3.76379e-10
3.90822e-10
4.04767e-10
4.18216e-10
4.31096e-10
4.43491e-10
4.55401e-10
4.66829e-10
4.77775e-10
4.88241e-10
4.98228e-10
5.07737e-10
5.16769e-10
5.25327e-10
5.33411e-10
5.41022e-10
5.48151e-10
5.54813e-10
5.61011e-10
5.66747e-10
5.72023e-10
5.7684e-10
5.81186e-10
5.85068e-10
5.88494e-10
5.91467e-10
5.93987e-10
5.96057e-10
5.9768e-10
5.98823e-10
5.99495e-10
5.99718e-10
5.99491e-10
5.98822e-10
5.97718e-10
5.96189e-10
5.94115e-10
5.91585e-10
5.88638e-10
5.85291e-10
5.814e-10
5.77026e-10
5.72271e-10
5.67074e-10
5.61277e-10
5.55126e-10
5.48537e-10
5.41333e-10
5.33817e-10
5.25741e-10
5.17169e-10
5.08311e-10
4.98672e-10
4.88793e-10
4.78289e-10
4.67351e-10
4.55985e-10
4.43981e-10
4.31729e-10
4.1865e-10
4.05417e-10
3.91325e-10
3.77015e-10
3.61978e-10
3.46571e-10
3.30577e-10
3.14051e-10
2.97097e-10
2.79425e-10
2.61515e-10
2.42671e-10
2.23548e-10
2.13662e-10
2.03776e-10
1.93734e-10
1.83407e-10
1.7308e-10
1.62618e-10
1.51875e-10
1.41132e-10
1.30182e-10
1.19055e-10
1.07915e-10
9.64424e-11
8.49701e-11
7.32418e-11
6.14669e-11
4.94426e-11
3.73146e-11
2.50335e-11
1.88424e-11
1.25981e-11
6.31909e-12
0
)

)


10
(

113
(
0
8.58056e-15
2.05846e-14
3.42395e-14
4.90435e-14
6.47677e-14
8.1336e-14
9.83019e-14
1.17027e-13
1.368e-13
1.59719e-13
1.87833e-13
2.245e-13
2.75077e-13
3.45846e-13
4.61333e-13
6.46e-13
9.30769e-13
1.3475e-12
2.1225e-12
3.48769e-12
5.965e-12
1.05467e-11
1.85615e-11
3.18692e-11
6.1325e-11
1.18125e-10
2.2575e-10
4.225e-10
7.66917e-10
1.40608e-09
2.72182e-09
4.92667e-09
8.445e-09
1.40909e-08
2.29909e-08
3.55364e-08
5.20909e-08
7.2e-08
9.36364e-08
1.13964e-07
1.316e-07
1.42273e-07
1.471e-07
1.46727e-07
1.42182e-07
1.34909e-07
1.26333e-07
1.17167e-07
1.08e-07
9.93846e-08
9.05e-08
8.20769e-08
7.44429e-08
6.76571e-08
6.13286e-08
5.54e-08
4.99e-08
4.54333e-08
4.14188e-08
3.78562e-08
3.48e-08
3.19875e-08
2.96125e-08
2.75824e-08
2.57e-08
2.42556e-08
2.28667e-08
2.17e-08
2.05778e-08
1.95222e-08
1.85632e-08
1.76684e-08
1.68105e-08
1.59684e-08
1.52e-08
1.445e-08
1.37e-08
1.295e-08
1.224e-08
1.154e-08
1.084e-08
1.014e-08
9.44e-09
8.74e-09
8.094e-09
7.454e-09
6.785e-09
6.11778e-09
5.49556e-09
4.87824e-09
4.57529e-09
4.27235e-09
3.97313e-09
3.68875e-09
3.40438e-09
3.12e-09
2.85667e-09
2.59333e-09
2.33e-09
2.055e-09
1.78e-09
1.52545e-09
1.28455e-09
1.05222e-09
8.32778e-10
6.22429e-10
4.27167e-10
2.68e-10
1.93e-10
1.1255e-10
4.7925e-11
0
)


113
(
0
1.00185e-14
2.24428e-14
3.64288e-14
5.18397e-14
6.90873e-14
8.94154e-14
1.15674e-13
1.54419e-13
2.20974e-13
3.46496e-13
5.9972e-13
1.0954e-12
2.04826e-12
4.0923e-12
8.3204e-12
1.64982e-11
3.18037e-11
5.68205e-11
1.03648e-10
1.90994e-10
3.31923e-10
5.57344e-10
9.04892e-10
1.43031e-09
2.25005e-09
3.42423e-09
5.04141e-09
7.1986e-09
9.9984e-09
1.36487e-08
1.82208e-08
2.37662e-08
3.01982e-08
3.74457e-08
4.54567e-08
5.40334e-08
6.29205e-08
7.1821e-08
8.03588e-08
8.82136e-08
9.51176e-08
1.00761e-07
1.05064e-07
1.07749e-07
1.08933e-07
1.08666e-07
1.07021e-07
1.04229e-07
1.00434e-07
9.56715e-08
9.04738e-08
8.49314e-08
7.92198e-08
7.34639e-08
6.78726e-08
6.24715e-08
5.72943e-08
5.26101e-08
4.82174e-08
4.41161e-08
4.05514e-08
3.72133e-08
3.4265e-08
3.16702e-08
2.92269e-08
2.7234e-08
2.5315e-08
2.36918e-08
2.21816e-08
2.0841e-08
1.96278e-08
1.84995e-08
1.74798e-08
1.65066e-08
1.56195e-08
1.47541e-08
1.39469e-08
1.31542e-08
1.23997e-08
1.16547e-08
1.09357e-08
1.02232e-08
9.52973e-09
8.84106e-09
8.1709e-09
7.5028e-09
6.85288e-09
6.20716e-09
5.58103e-09
4.96213e-09
4.66114e-09
4.36014e-09
4.06172e-09
3.77361e-09
3.48549e-09
3.19738e-09
2.92325e-09
2.64913e-09
2.375e-09
2.11573e-09
1.85645e-09
1.60725e-09
1.36477e-09
1.12995e-09
9.06601e-10