/*--------------------------------*- C++ -*----------------------------------*\
| =========                 |                                                 |
| \\      /  F ield         | OpenFOAM: The Open Source CFD Toolbox           |
|  \\    /   O peration     | Version:  2.3.0                                 |
|   \\  /    A nd           | Web:      www.OpenFOAM.org                      |
|    \\/     M anipulation  |                                                 |
\*---------------------------------------------------------------------------*/
FoamFile
{
    version     2.0;
    format      ascii;
    class       dictionary;
    location    "constant";
    object      N2O;
}
// * * * * * * * * * * * * * * * * * * * * * * * * * * * * * * * * * * * * * //

N2O_table
13
(

10
(

113
(
0
2.55792e-08
6.03843e-08
1.00251e-07
1.43228e-07
1.89143e-07
2.36762e-07
2.86825e-07
3.37897e-07
3.89755e-07
4.43397e-07
4.96795e-07
5.5e-07
5.99686e-07
6.45553e-07
6.85925e-07
7.11178e-07
7.28689e-07
7.2686e-07
7.12994e-07
6.88454e-07
6.51427e-07
6.11444e-07
5.67e-07
5.21765e-07
4.76068e-07
4.29484e-07
3.82646e-07
3.35441e-07
2.8927e-07
2.44075e-07
2.01575e-07
1.63132e-07
1.27448e-07
9.98377e-08
7.60987e-08
5.74911e-08
4.74373e-08
4.19519e-08
4.47367e-08
5.36427e-08
6.50627e-08
7.47522e-08
7.97749e-08
8.03138e-08
7.62728e-08
7.12609e-08
6.54508e-08
5.98395e-08
5.46503e-08
4.98139e-08
4.53754e-08
4.14125e-08
3.77667e-08
3.45289e-08
3.14832e-08
2.89129e-08
2.65366e-08
2.45333e-08
2.26976e-08
2.11733e-08
1.984e-08
1.87869e-08
1.79925e-08
1.73944e-08
1.71167e-08
1.69404e-08
1.71239e-08
1.73255e-08
1.79618e-08
1.85982e-08
1.93842e-08
2.01986e-08
2.08973e-08
2.15279e-08
2.19e-08
2.19e-08
2.17872e-08
2.11235e-08
2.04597e-08
1.9478e-08
1.84648e-08
1.73637e-08
1.62133e-08
1.5057e-08
1.3891e-08
1.27349e-08
1.16339e-08
1.0533e-08
9.44646e-09
8.36033e-09
7.84224e-09
7.33204e-09
6.82184e-09
6.31163e-09
5.82652e-09
5.34618e-09
4.86584e-09
4.39418e-09
3.94481e-09
3.49544e-09
3.0503e-09
2.63612e-09
2.22194e-09
1.825e-09
1.45e-09
1.08753e-09
7.57284e-10
4.54071e-10
3.11e-10
1.86e-10
7.75143e-11
0
)


113
(
0
2.95398e-08
6.57291e-08
1.05931e-07
1.49186e-07
1.94695e-07
2.42058e-07
2.90651e-07
3.39454e-07
3.88179e-07
4.35155e-07
4.79618e-07
5.22105e-07
5.57018e-07
5.87651e-07
6.12125e-07
6.26642e-07
6.36442e-07
6.35366e-07
6.27834e-07
6.14576e-07
5.92084e-07
5.66572e-07
5.35384e-07
5.01155e-07
4.65167e-07
4.26808e-07
3.88467e-07
3.50153e-07
3.13279e-07
2.77474e-07
2.44336e-07
2.13926e-07
1.85363e-07
1.61801e-07
1.4051e-07
1.2223e-07
1.08155e-07
9.59589e-08
8.68376e-08
7.99533e-08
7.43303e-08
7.05859e-08
6.74381e-08
6.48636e-08
6.2593e-08
6.03703e-08
5.80669e-08
5.56458e-08
5.29745e-08
5.0175e-08
4.72311e-08
4.42648e-08
4.12838e-08
3.84288e-08
3.56333e-08
3.31008e-08
3.06758e-08
2.8572e-08
2.66125e-08
2.49666e-08
2.35129e-08
2.23144e-08
2.13515e-08
2.0556e-08
2.00333e-08
1.9589e-08
1.94226e-08
1.92657e-08
1.93369e-08
1.94081e-08
1.95534e-08
1.97128e-08
1.98253e-08
1.99103e-08
1.99108e-08
1.97898e-08
1.96209e-08
1.92181e-08
1.88153e-08
1.81571e-08
1.74736e-08
1.66513e-08
1.57507e-08
1.48032e-08
1.3779e-08
1.27484e-08
1.16809e-08
1.06134e-08
9.55545e-09
8.49783e-09
7.9839e-09
7.47468e-09
6.96545e-09
6.45622e-09
5.96955e-09
5.48718e-09
5.0048e-09
4.5311e-09
4.07971e-09
3.62831e-09
3.18103e-09
2.76395e-09
2.34687e-09
1.94606e-09
1.56597e-09
1.19641e-09
8.53904e-10
5.34384e-10
3.81886e-10
2.44812e-10
1.17589e-10
0
)


113
(
0
3.57491e-08
7.3059e-08
1.12525e-07
1.52779e-07
1.93274e-07
2.33972e-07
2.72404e-07
3.09015e-07
3.43909e-07
3.74881e-07
4.03123e-07
4.2922e-07
4.49426e-07
4.67092e-07
4.81103e-07
4.89886e-07
4.96287e-07
4.97438e-07
4.95505e-07
4.90836e-07
4.81612e-07
4.70795e-07
4.56887e-07
4.40885e-07
4.23659e-07
4.04155e-07
3.84136e-07
3.63378e-07
3.42105e-07
3.20757e-07
2.99609e-07
2.78847e-07
2.58358e-07
2.39189e-07
2.206e-07
2.02779e-07
1.86462e-07
1.70868e-07
1.56511e-07
1.43366e-07
1.30968e-07
1.20056e-07
1.09953e-07
1.00626e-07
9.2492e-08
8.47442e-08
7.82809e-08
7.21721e-08
6.68164e-08
6.18935e-08
5.74586e-08
5.34935e-08
4.98417e-08
4.66324e-08
4.36312e-08
4.104e-08
3.86162e-08
3.64482e-08
3.4395e-08
3.26005e-08
3.09644e-08
2.94857e-08
2.81523e-08
2.69121e-08
2.58238e-08
2.4785e-08
2.39213e-08
2.30642e-08
2.23668e-08
2.16695e-08
2.10664e-08
2.04813e-08
1.99364e-08
1.94152e-08
1.88965e-08
1.83815e-08
1.7861e-08
1.73134e-08
1.67658e-08
1.61602e-08
1.55489e-08
1.48841e-08
1.41891e-08
1.34621e-08
1.26826e-08
1.1893e-08
1.10466e-08
1.02001e-08
9.31012e-09
8.41879e-09
7.96513e-09
7.50894e-09
7.05275e-09
6.59657e-09
6.14184e-09
5.68739e-09
5.23294e-09
4.78055e-09
4.33344e-09
3.88633e-09
3.4423e-09
3.02083e-09
2.59935e-09
2.18843e-09
1.79094e-09
1.40077e-09
1.02941e-09
6.76183e-10
5.05026e-10
3.42849e-10
1.80062e-10
0
)


113
(
0
3.64574e-08
6.88432e-08
1.00872e-07
1.32394e-07
1.62985e-07
1.9217e-07
2.19353e-07
2.44865e-07
2.68844e-07
2.89929e-07
3.09121e-07
3.26824e-07
3.41957e-07
3.55281e-07
3.66e-07
3.73858e-07
3.80421e-07
3.84149e-07
3.8615e-07
3.8662e-07
3.84638e-07
3.81771e-07
3.7716e-07
3.71176e-07
3.64388e-07
3.55999e-07
3.47071e-07
3.37369e-07
3.26744e-07
3.15753e-07
3.04256e-07
2.92417e-07
2.80357e-07
2.68131e-07
2.55888e-07
2.4362e-07
2.31587e-07
2.19661e-07
2.07907e-07
1.96478e-07
1.85264e-07
1.74555e-07
1.64202e-07
1.54191e-07
1.44706e-07
1.35416e-07
1.26888e-07
1.18615e-07
1.10883e-07
1.03544e-07
9.66468e-08
9.01769e-08
8.39918e-08
7.83999e-08
7.30872e-08
6.82599e-08
6.36309e-08
5.94284e-08
5.54174e-08
5.18426e-08
4.85351e-08
4.54597e-08
4.25985e-08
3.99242e-08
3.75551e-08
3.52669e-08
3.32662e-08
3.12794e-08
2.96296e-08
2.79797e-08
2.6512e-08
2.50789e-08
2.37842e-08
2.25708e-08
2.14185e-08
2.03541e-08
1.9308e-08
1.83513e-08
1.73945e-08
1.64923e-08
1.55953e-08
1.47339e-08
1.38925e-08
1.30496e-08
1.22042e-08
1.13607e-08
1.05274e-08
9.69418e-09
8.8687e-09
8.04346e-09
7.63007e-09
7.21643e-09
6.80279e-09
6.38916e-09
5.97601e-09
5.56296e-09
5.14992e-09
4.7379e-09
4.32854e-09
3.91919e-09
3.51081e-09
3.10963e-09
2.70844e-09
2.31315e-09
1.92536e-09
1.54164e-09
1.16838e-09
7.98408e-10
6.13743e-10
4.23094e-10
2.23063e-10
0
)


113
(
0
3.07994e-08
5.64679e-08
8.00753e-08
1.0259e-07
1.24164e-07
1.44676e-07
1.63824e-07
1.81871e-07
1.98919e-07
2.14135e-07
2.28191e-07
2.41336e-07
2.52381e-07
2.62577e-07
2.7155e-07
2.78915e-07
2.85551e-07
2.90593e-07
2.94683e-07
2.97929e-07
2.9968e-07
3.0087e-07
3.00938e-07
3.00478e-07
2.99693e-07
2.97572e-07
2.94907e-07
2.91459e-07
2.87211e-07
2.82579e-07
2.77259e-07
2.71504e-07
2.65461e-07
2.58987e-07
2.52286e-07
2.45282e-07
2.38079e-07
2.30773e-07
2.23283e-07
2.15755e-07
2.08198e-07
2.0056e-07
1.92957e-07
1.85385e-07
1.77971e-07
1.70592e-07
1.63251e-07
1.56026e-07
1.49047e-07
1.42207e-07
1.35523e-07
1.29027e-07
1.22656e-07
1.16578e-07
1.10639e-07
1.04917e-07
9.92837e-08
9.39942e-08
8.88591e-08
8.40067e-08
7.93278e-08
7.48484e-08
7.05532e-08
6.64065e-08
6.25017e-08
5.86945e-08
5.52332e-08
5.17884e-08
4.87376e-08
4.56868e-08
4.28412e-08
4.00347e-08
3.74486e-08
3.49921e-08
3.26441e-08
3.04521e-08
2.83099e-08
2.641e-08
2.45102e-08
2.28082e-08
2.11257e-08
1.95616e-08
1.80641e-08
1.66251e-08
1.52816e-08
1.39569e-08
1.2739e-08
1.15211e-08
1.04011e-08
9.28418e-09
8.75632e-09
8.23812e-09
7.71993e-09
7.20173e-09
6.71108e-09
6.22568e-09
5.74027e-09
5.26271e-09
4.8053e-09
4.34788e-09
3.89335e-09
3.45989e-09
3.02643e-09
2.60036e-09
2.1837e-09
1.76805e-09
1.35501e-09
9.33109e-10
7.18815e-10
4.9232e-10
2.55681e-10
0
)


113
(
0
2.30917e-08
4.24561e-08
5.96327e-08
7.55277e-08
9.04667e-08
1.04541e-07
1.17723e-07
1.30253e-07
1.42204e-07
1.53132e-07
1.63415e-07
1.73192e-07
1.81791e-07
1.89908e-07
1.97329e-07
2.03822e-07
2.09893e-07
2.15032e-07
2.19603e-07
2.23672e-07
2.26833e-07
2.29648e-07
2.31765e-07
2.33324e-07
2.34553e-07
2.34993e-07
2.3513e-07
2.34832e-07
2.33999e-07
2.32904e-07
2.31331e-07
2.29426e-07
2.27302e-07
2.24853e-07
2.2215e-07
2.1911e-07
2.15753e-07
2.12255e-07
2.08522e-07
2.04604e-07
2.00575e-07
1.96348e-07
1.92793e-07
1.89883e-07
1.85876e-07
1.81619e-07
1.7703e-07
1.72302e-07
1.67276e-07
1.62165e-07
1.56957e-07
1.51672e-07
1.46337e-07
1.41063e-07
1.35818e-07
1.29926e-07
1.2377e-07
1.18633e-07
1.13954e-07
1.09363e-07
1.04826e-07
1.00376e-07
9.60074e-08
9.17104e-08
8.7531e-08
8.34196e-08
7.95493e-08
7.56828e-08
7.19078e-08
6.81329e-08
6.45522e-08
6.10085e-08
5.76115e-08
5.43006e-08
5.10849e-08
4.80061e-08
4.49662e-08
4.21167e-08
3.92671e-08
3.6621e-08
3.39951e-08
3.15068e-08
2.90958e-08
2.67621e-08
2.45546e-08
2.23757e-08
2.03588e-08
1.83418e-08
1.64957e-08
1.46548e-08
1.37952e-08
1.29547e-08
1.21143e-08
1.12738e-08
1.04924e-08
9.72228e-09
8.95213e-09
8.19823e-09
7.48608e-09
6.77393e-09
6.06677e-09
5.3961e-09
4.72544e-09
4.06361e-09
3.41301e-09
2.76144e-09
2.10738e-09
1.4383e-09
1.09864e-09
7.44584e-10
3.80647e-10
0
)


113
(
0
1.57856e-08
2.94746e-08
4.16292e-08
5.27563e-08
6.30837e-08
7.27011e-08
8.16523e-08
9.0162e-08
9.82944e-08
1.05818e-07
1.12986e-07
1.19875e-07
1.26139e-07
1.3215e-07
1.37798e-07
1.42961e-07
1.47902e-07
1.52348e-07
1.56488e-07
1.60358e-07
1.63726e-07
1.66697e-07
1.68694e-07
1.70769e-07
1.72878e-07
1.74498e-07
1.75925e-07
1.77073e-07
1.77865e-07
1.78481e-07
1.78766e-07
1.78812e-07
1.78697e-07
1.78222e-07
1.77601e-07
1.76786e-07
1.75702e-07
1.74492e-07
1.73068e-07
1.71459e-07
1.69737e-07
1.67796e-07
1.65737e-07
1.63564e-07
1.61208e-07
1.58795e-07
1.56204e-07
1.53556e-07
1.50783e-07
1.47936e-07
1.45004e-07
1.4199e-07
1.3892e-07
1.35772e-07
1.32586e-07
1.29334e-07
1.26055e-07
1.22726e-07
1.19375e-07
1.15993e-07
1.12592e-07
1.09178e-07
1.0575e-07
1.02319e-07
9.88853e-08
9.54542e-08
9.20341e-08
8.86153e-08
8.52281e-08
8.18409e-08
7.84959e-08
7.51589e-08
7.18638e-08
6.85931e-08
6.53557e-08
6.21662e-08
5.90157e-08
5.60563e-08
5.30969e-08
5.008e-08
4.70575e-08
4.41175e-08
4.1224e-08
3.83818e-08
3.56231e-08
3.2885e-08
3.02638e-08
2.76426e-08
2.51524e-08
2.26663e-08
2.14706e-08
2.02899e-08
1.91092e-08
1.79284e-08
1.67912e-08
1.56623e-08
1.45333e-08
1.34143e-08
1.23209e-08
1.12274e-08
1.01356e-08
9.05603e-09
7.97647e-09
6.89238e-09
5.80253e-09
4.70389e-09
3.58263e-09
2.43303e-09
1.84925e-09
1.24613e-09
6.31819e-10
0
)


113
(
0
9.58961e-09
1.82455e-08
2.61022e-08
3.33557e-08
4.01026e-08
4.63745e-08
5.21872e-08
5.76973e-08
6.29502e-08
6.78012e-08
7.2429e-08
7.68813e-08
8.09623e-08
8.49002e-08
8.86323e-08
9.20991e-08
9.54456e-08
9.85284e-08
1.0145e-07
1.04228e-07
1.06742e-07
1.09154e-07
1.11356e-07
1.13384e-07
1.15308e-07
1.16974e-07
1.18536e-07
1.19947e-07
1.21162e-07
1.22277e-07
1.23206e-07
1.23994e-07
1.24688e-07
1.25166e-07
1.25552e-07
1.25817e-07
1.25908e-07
1.25917e-07
1.25782e-07
1.25517e-07
1.25173e-07
1.2467e-07
1.24076e-07
1.23394e-07
1.22565e-07
1.2169e-07
1.20661e-07
1.19579e-07
1.18384e-07
1.17113e-07
1.15758e-07
1.14311e-07
1.12804e-07
1.112e-07
1.09549e-07
1.07802e-07
1.06016e-07
1.04142e-07
1.0223e-07
1.00245e-07
9.82166e-08
9.61333e-08
9.39996e-08
9.18304e-08
8.96032e-08
8.73582e-08
8.50497e-08
8.27385e-08
8.03609e-08
7.79834e-08
7.55581e-08
7.31237e-08
7.06611e-08
6.81819e-08
6.56891e-08
6.31768e-08
6.06607e-08
5.81261e-08
5.55915e-08
5.30457e-08
5.04987e-08
4.79492e-08
4.53981e-08
4.28475e-08
4.02978e-08
3.77483e-08
3.5201e-08
3.26537e-08
3.01042e-08
2.75546e-08
2.62744e-08
2.49926e-08
2.37107e-08
2.24288e-08
2.11328e-08
1.98341e-08
1.85354e-08
1.72283e-08
1.58998e-08
1.45713e-08
1.32375e-08
1.18649e-08
1.04923e-08
9.09515e-09
7.66664e-09
6.22095e-09
4.7311e-09
3.20326e-09
2.42773e-09
1.63106e-09
8.23554e-10
0
)


113
(
0
4.49453e-09
8.70932e-09
1.26563e-08
1.63807e-08
1.9904e-08
2.32261e-08
2.63397e-08
2.93095e-08
3.21554e-08
3.48009e-08
3.73326e-08
3.97748e-08
4.20261e-08
4.42043e-08
4.6277e-08
4.82156e-08
5.00938e-08
5.18407e-08
5.35089e-08
5.51072e-08
5.65791e-08
5.80023e-08
5.93269e-08
6.05705e-08
6.17661e-08
6.28432e-08
6.38726e-08
6.48335e-08
6.57051e-08
6.65319e-08
6.72737e-08
6.79517e-08
6.85871e-08
6.91233e-08
6.96172e-08
7.00553e-08
7.04123e-08
7.073e-08
7.09799e-08
7.11674e-08
7.13162e-08
7.13867e-08
7.14115e-08
7.13924e-08
7.12974e-08
7.11778e-08
7.09771e-08
7.0747e-08
7.04546e-08
7.01193e-08
6.97357e-08
6.92981e-08
6.88244e-08
6.82898e-08
6.77265e-08
6.70999e-08
6.64475e-08
6.57342e-08
6.49934e-08
6.41987e-08
6.33709e-08
6.24986e-08
6.15852e-08
6.064e-08
5.96428e-08
5.86275e-08
5.75483e-08
5.64659e-08
5.53064e-08
5.4147e-08
5.29214e-08
5.16833e-08
5.03963e-08
4.90807e-08
4.77334e-08
4.63406e-08
4.49346e-08
4.3464e-08
4.19934e-08
4.04504e-08
3.89003e-08
3.72975e-08
3.5665e-08
3.39997e-08
3.22808e-08
3.05481e-08
2.87371e-08
2.69261e-08
2.50188e-08
2.31086e-08
2.21128e-08
2.11041e-08
2.00955e-08
1.90869e-08
1.80303e-08
1.69645e-08
1.58988e-08
1.48163e-08
1.36909e-08
1.25654e-08
1.14328e-08
1.0247e-08
9.06125e-09
7.85019e-09
6.60694e-09
5.3495e-09
4.05557e-09
2.73492e-09
2.06657e-09
1.38494e-09
6.96989e-10
0
)


113
(
0
3.39121e-10
6.69834e-10
9.91731e-10
1.30564e-09
1.61182e-09
1.90968e-09
2.19816e-09
2.47968e-09
2.75505e-09
3.01971e-09
3.2778e-09
3.53071e-09
3.77176e-09
4.00795e-09
4.23714e-09
4.45687e-09
4.67224e-09
4.87785e-09
5.07731e-09
5.27133e-09
5.45507e-09
5.63474e-09
5.80609e-09
5.97038e-09
6.13048e-09
6.27993e-09
6.42498e-09
6.56372e-09
6.69402e-09
6.82004e-09
6.93784e-09
7.04935e-09
7.15665e-09
7.25397e-09
7.34696e-09
7.43421e-09
7.513e-09
7.58762e-09
7.65502e-09
7.71566e-09
7.77209e-09
7.81985e-09
7.86247e-09
7.90015e-09
7.92907e-09
7.95515e-09
7.97168e-09
7.98466e-09
7.99012e-09
7.99028e-09
7.98446e-09
7.97176e-09
7.95447e-09
7.92919e-09
7.90015e-09
7.86254e-09
7.82144e-09
7.7718e-09
7.71832e-09
7.65702e-09
7.5909e-09
7.51809e-09
7.43908e-09
7.35509e-09
7.26296e-09
7.1679e-09
7.06244e-09
6.95644e-09
6.83745e-09
6.71845e-09
6.58791e-09
6.45517e-09
6.31365e-09
6.16698e-09
6.0145e-09
5.85364e-09
5.69033e-09
5.515e-09
5.33967e-09
5.15089e-09
4.96079e-09
4.76109e-09
4.55599e-09
4.34515e-09
4.12495e-09
3.90249e-09
3.66721e-09
3.43192e-09
3.18221e-09
2.93205e-09
2.80151e-09
2.66925e-09
2.53699e-09
2.40473e-09
2.2668e-09
2.12778e-09
1.98877e-09
1.84802e-09
1.70284e-09
1.55765e-09
1.4118e-09
1.26116e-09
1.11052e-09
9.57868e-10
8.02646e-10
6.4641e-10
4.87567e-10
3.26975e-10
2.46159e-10
1.64527e-10
8.25241e-11
0
)

)


10
(

113
(
0
3.22444e-08
7.73809e-08
1.29257e-07
1.85495e-07
2.45248e-07
3.07903e-07
3.72939e-07
4.39981e-07
5.087e-07
5.78615e-07
6.4892e-07
7.18404e-07
7.85272e-07
8.47049e-07
8.99798e-07
9.37763e-07
9.58423e-07
9.59372e-07
9.39757e-07
9.00556e-07
8.44686e-07
7.76716e-07
7.02354e-07
6.27975e-07
5.5658e-07
4.90034e-07
4.2905e-07
3.736e-07
3.23325e-07
2.77772e-07
2.36515e-07
1.99242e-07
1.65947e-07
1.36719e-07
1.12121e-07
9.26726e-08
7.91763e-08
7.22766e-08
7.20183e-08
7.71154e-08
8.47151e-08
9.11793e-08
9.41991e-08
9.33654e-08
8.95947e-08
8.425e-08
7.8488e-08
7.31076e-08
6.84892e-08
6.46865e-08
6.16695e-08
5.9351e-08
5.76379e-08
5.64422e-08
5.57876e-08
5.54812e-08
5.54228e-08
5.55517e-08
5.58231e-08
5.60896e-08
5.62958e-08
5.63851e-08
5.62019e-08
5.58338e-08
5.52269e-08
5.42927e-08
5.32106e-08
5.1881e-08
5.03932e-08
4.88139e-08
4.7078e-08
4.53124e-08
4.34759e-08
4.16178e-08
3.97384e-08
3.78516e-08
3.5962e-08
3.40821e-08
3.2205e-08
3.03497e-08
2.85014e-08
2.66765e-08
2.48658e-08
2.30775e-08
2.13117e-08
1.95639e-08
1.78504e-08
1.61483e-08
1.44973e-08
1.28637e-08
1.20673e-08
1.12709e-08
1.0486e-08
9.72207e-09
8.95811e-09
8.20597e-09
7.47826e-09
6.75055e-09
6.04466e-09
5.35737e-09
4.67182e-09
4.03014e-09
3.38847e-09
2.789e-09
2.19728e-09
1.65767e-09
1.14636e-09
6.81939e-10
4.68446e-10
2.80272e-10
1.16812e-10
0
)


113
(
0
3.7646e-08
8.44115e-08
1.36841e-07
1.9325e-07
2.52835e-07
3.14833e-07
3.7845e-07
4.42733e-07
5.06587e-07
5.68722e-07
6.27704e-07
6.82018e-07
7.30129e-07
7.7058e-07
8.01262e-07
8.2028e-07
8.28343e-07
8.25464e-07
8.12046e-07
7.88845e-07
7.56957e-07
7.1782e-07
6.72379e-07
6.23646e-07
5.72962e-07
5.21745e-07
4.71262e-07
4.22476e-07
3.76162e-07
3.33006e-07
2.93379e-07
2.57656e-07
2.25862e-07
1.98111e-07
1.74276e-07
1.54176e-07
1.37471e-07
1.23798e-07
1.12814e-07
1.04152e-07
9.73443e-08
9.20156e-08
8.77981e-08
8.43273e-08
8.1328e-08
7.86311e-08
7.61354e-08
7.37746e-08
7.14916e-08
6.92898e-08
6.71966e-08
6.52434e-08
6.34552e-08
6.18469e-08
6.0486e-08
5.93234e-08
5.83241e-08
5.74663e-08
5.67576e-08
5.61244e-08
5.55243e-08
5.49398e-08
5.43091e-08
5.36273e-08
5.2873e-08
5.19806e-08
5.10137e-08
4.99071e-08
4.86802e-08
4.73836e-08
4.59208e-08
4.44159e-08
4.28052e-08
4.11421e-08
3.94275e-08
3.76657e-08
3.58856e-08
3.40759e-08
3.22628e-08
3.04442e-08
2.86287e-08
2.68235e-08
2.50287e-08
2.32504e-08
2.14922e-08
1.97502e-08
1.80412e-08
1.63433e-08
1.46952e-08
1.30643e-08
1.22689e-08
1.14735e-08
1.06895e-08
9.926e-09
9.16251e-09
8.41062e-09
7.6827e-09
6.95478e-09
6.24809e-09
5.55951e-09
4.87256e-09
4.22709e-09
3.58162e-09
2.97557e-09
2.37676e-09
1.82613e-09
1.29804e-09
8.08435e-10
5.79478e-10
3.69847e-10
1.77436e-10
0
)


113
(
0
4.61172e-08
9.4614e-08
1.45995e-07
1.9847e-07
2.51392e-07
3.03985e-07
3.54366e-07
4.02143e-07
4.46874e-07
4.87607e-07
5.24074e-07
5.56124e-07
5.83451e-07
6.0577e-07
6.22589e-07
6.3355e-07
6.39412e-07
6.40396e-07
6.36729e-07
6.28698e-07
6.16676e-07
6.01036e-07
5.8183e-07
5.60156e-07
5.36392e-07
5.11017e-07
4.84465e-07
4.57284e-07
4.29812e-07
4.02156e-07
3.75129e-07
3.4869e-07
3.23063e-07
2.98647e-07
2.7544e-07
2.53666e-07
2.33266e-07
2.14416e-07
1.96965e-07
1.8095e-07
1.66528e-07
1.53328e-07
1.41493e-07
1.30889e-07
1.21378e-07
1.12869e-07
1.05326e-07
9.86961e-08
9.28833e-08
8.77198e-08
8.31419e-08
7.90926e-08
7.55073e-08
7.23122e-08
6.95305e-08
6.70318e-08
6.47609e-08
6.26876e-08
6.08393e-08
5.91328e-08
5.75192e-08
5.59964e-08
5.45591e-08
5.31574e-08
5.17942e-08
5.0456e-08
4.9123e-08
4.77916e-08
4.64467e-08
4.50941e-08
4.37044e-08
4.23008e-08
4.08607e-08
3.93945e-08
3.79028e-08
3.6372e-08
3.48261e-08
3.32367e-08
3.16399e-08
3.00072e-08
2.83691e-08
2.67132e-08
2.50531e-08
2.33865e-08
2.17224e-08
2.00603e-08
1.84112e-08
1.67665e-08
1.51544e-08
1.3556e-08
1.27729e-08
1.19898e-08
1.12153e-08
1.04562e-08
9.69712e-09
8.94607e-09
8.21161e-09
7.47715e-09
6.75754e-09
6.05058e-09
5.34523e-09
4.68068e-09
4.01613e-09
3.38154e-09
2.75243e-09
2.15806e-09
1.58212e-09
1.03621e-09
7.74838e-10
5.25414e-10
2.76373e-10
0
)


113
(
0
4.72742e-08
8.91491e-08
1.30664e-07
1.71534e-07
2.11093e-07
2.48792e-07
2.84248e-07
3.17208e-07
3.47507e-07
3.75044e-07
3.99754e-07
4.21943e-07
4.41708e-07
4.58505e-07
4.71869e-07
4.82258e-07
4.89575e-07
4.94134e-07
4.96364e-07
4.96402e-07
4.94082e-07
4.89801e-07
4.83436e-07
4.75561e-07
4.66188e-07
4.5551e-07
4.43747e-07
4.30996e-07
4.17385e-07
4.03174e-07
3.8843e-07
3.73404e-07
3.57854e-07
3.42505e-07
3.26942e-07
3.11597e-07
2.96343e-07
2.81421e-07
2.66856e-07
2.52661e-07
2.38875e-07
2.25545e-07
2.12843e-07
2.00677e-07
1.89092e-07
1.78036e-07
1.67491e-07
1.57575e-07
1.48314e-07
1.39554e-07
1.31355e-07
1.23669e-07
1.16458e-07
1.09725e-07
1.03479e-07
9.77097e-08
9.23323e-08
8.7306e-08
8.27137e-08
7.84332e-08
7.44009e-08
7.0656e-08
6.72312e-08
6.39902e-08
6.09759e-08
5.8195e-08
5.55217e-08
5.30311e-08
5.06787e-08
4.84063e-08
4.63018e-08
4.42401e-08
4.22862e-08
4.03849e-08
3.85352e-08
3.67456e-08
3.49794e-08
3.32747e-08
3.15788e-08
2.99132e-08
2.82578e-08
2.66365e-08
2.50189e-08
2.34073e-08
2.17994e-08
2.01945e-08
1.85958e-08
1.69992e-08
1.54522e-08
1.39133e-08
1.31531e-08
1.23929e-08
1.16382e-08
1.08935e-08
1.01488e-08
9.40986e-09
8.68299e-09
7.95611e-09
7.2402e-09
6.53364e-09
5.82797e-09
5.14473e-09
4.4615e-09
3.80108e-09
3.14485e-09
2.51625e-09
1.8988e-09
1.29388e-09
9.92975e-10
6.84704e-10
3.60667e-10
0
)


113
(
0
3.99422e-08
7.30209e-08
1.03501e-07
1.32592e-07
1.60414e-07
1.8686e-07
2.11785e-07
2.35077e-07
2.56671e-07
2.76542e-07
2.9469e-07
3.1113e-07
3.25887e-07
3.38992e-07
3.50368e-07
3.59981e-07
3.68085e-07
3.74733e-07
3.7998e-07
3.8388e-07
3.86492e-07
3.87872e-07
3.87924e-07
3.87135e-07
3.85914e-07
3.83776e-07
3.80307e-07
3.75756e-07
3.70539e-07
3.64524e-07
3.57704e-07
3.50528e-07
3.42816e-07
3.34674e-07
3.26057e-07
3.17283e-07
3.08152e-07
2.98982e-07
2.89591e-07
2.80082e-07
2.70569e-07
2.61036e-07
2.51523e-07
2.42179e-07
2.32893e-07
2.23586e-07
2.1451e-07
2.05621e-07
1.96948e-07
1.88371e-07
1.80056e-07
1.71997e-07
1.64154e-07
1.56517e-07
1.49095e-07
1.42033e-07
1.35161e-07
1.28433e-07
1.22033e-07
1.15975e-07
1.10109e-07
1.04401e-07
9.90451e-08
9.38633e-08
8.88842e-08
8.41869e-08
7.96359e-08
7.5352e-08
7.12535e-08
6.72625e-08
6.35533e-08
5.99112e-08
5.64363e-08
5.31145e-08
4.99435e-08
4.69248e-08
4.39651e-08
4.12668e-08
3.86097e-08
3.61338e-08
3.36979e-08
3.13951e-08
2.91506e-08
2.69988e-08
2.49193e-08
2.28981e-08
2.0961e-08
1.9052e-08
1.72386e-08
1.54507e-08
1.45864e-08
1.37221e-08
1.28711e-08
1.20442e-08
1.12173e-08
1.04016e-08
9.60925e-09
8.8169e-09
8.0423e-09
7.28282e-09
6.52449e-09
5.79543e-09
5.06637e-09
4.35812e-09
3.65357e-09
2.96155e-09
2.26724e-09
1.56254e-09
1.20234e-09
8.2479e-10
4.28184e-10
0
)


113
(
0
2.99471e-08
5.49249e-08
7.70974e-08
9.76335e-08
1.16902e-07
1.35081e-07
1.52254e-07
1.68456e-07
1.83697e-07
1.97982e-07
2.11316e-07
2.23704e-07
2.35153e-07
2.45672e-07
2.5521e-07
2.63735e-07
2.71385e-07
2.78182e-07
2.84149e-07
2.8931e-07
2.93689e-07
2.9731e-07
3.00098e-07
3.02203e-07
3.03654e-07
3.04479e-07
3.04707e-07
3.04367e-07
3.03489e-07
3.02102e-07
3.00236e-07
2.97921e-07
2.95193e-07
2.922e-07
2.88696e-07
2.8486e-07
2.80721e-07
2.76308e-07
2.71644e-07
2.66756e-07
2.61661e-07
2.56388e-07
2.51348e-07
2.48528e-07
2.43568e-07
2.38102e-07
2.3237e-07
2.26392e-07
2.20097e-07
2.13677e-07
2.0718e-07
2.00546e-07
1.93765e-07
1.86913e-07
1.80139e-07
1.734e-07
1.66071e-07
1.58333e-07
1.52397e-07
1.46544e-07
1.40761e-07
1.35062e-07
1.29489e-07
1.23993e-07
1.18594e-07
1.13433e-07
1.08329e-07
1.03259e-07
9.83161e-08
9.34477e-08
8.87807e-08
8.41753e-08
7.973e-08
7.53942e-08
7.11661e-08
6.70955e-08
6.30859e-08
5.92735e-08
5.54971e-08
5.19179e-08
4.83867e-08
4.50151e-08
4.17206e-08
3.85489e-08
3.54828e-08
3.25019e-08
2.96564e-08
2.68562e-08
2.42247e-08
2.16416e-08
2.04062e-08
1.91709e-08
1.79617e-08
1.67998e-08
1.56379e-08
1.44973e-08
1.3401e-08
1.23047e-08
1.1238e-08
1.01966e-08
9.15665e-09
8.15527e-09
7.15389e-09
6.17048e-09
5.19019e-09
4.20938e-09
3.21769e-09
2.20269e-09
1.68299e-09
1.14308e-09
5.84824e-10
0
)


113
(
0
2.04987e-08
3.82109e-08
5.39395e-08
6.8351e-08
8.16998e-08
9.41599e-08
1.0586e-07
1.16891e-07
1.27315e-07
1.37175e-07
1.46501e-07
1.55314e-07
1.63628e-07
1.71455e-07
1.7877e-07
1.85556e-07
1.9188e-07
1.97751e-07
2.03176e-07
2.08162e-07
2.12717e-07
2.16848e-07
2.1917e-07
2.22078e-07
2.24746e-07
2.27023e-07
2.2892e-07
2.30447e-07
2.31616e-07
2.32437e-07
2.32923e-07
2.33085e-07
2.32936e-07
2.32488e-07
2.31747e-07
2.30732e-07
2.29459e-07
2.27938e-07
2.26182e-07
2.24203e-07
2.22005e-07
2.19605e-07
2.17015e-07
2.14247e-07
2.11313e-07
2.08222e-07
2.04985e-07
2.01603e-07
1.98089e-07
1.94459e-07
1.90721e-07
1.86887e-07
1.82964e-07
1.78963e-07
1.74871e-07
1.70715e-07
1.66505e-07
1.62249e-07
1.57939e-07
1.53592e-07
1.4922e-07
1.44822e-07
1.40401e-07
1.35973e-07
1.31536e-07
1.27099e-07
1.22665e-07
1.18241e-07
1.13833e-07
1.09435e-07
1.05074e-07
1.00728e-07
9.64217e-08
9.21478e-08
8.79062e-08
8.37208e-08
7.9557e-08
7.56393e-08
7.17366e-08
6.77168e-08
6.37254e-08
5.98285e-08
5.59813e-08
5.22131e-08
4.85186e-08
4.48834e-08
4.1349e-08
3.78482e-08
3.44782e-08
3.1146e-08
2.95238e-08
2.79017e-08
2.6299e-08
2.47318e-08
2.31646e-08
2.16116e-08
2.0088e-08
1.85644e-08
1.70558e-08
1.556e-08
1.40645e-08
1.25771e-08
1.10897e-08
9.59137e-09
8.09086e-09
6.55804e-09
5.00112e-09
3.40246e-09
2.58554e-09
1.7447e-09
8.84887e-10
0
)


113
(
0
1.24863e-08
2.37337e-08
3.39412e-08
4.33725e-08
5.21252e-08
6.02797e-08
6.79093e-08
7.50762e-08
8.18308e-08
8.82128e-08
9.42531e-08
9.99761e-08
1.05401e-07
1.10543e-07
1.15396e-07
1.19958e-07
1.2427e-07
1.28339e-07
1.32172e-07
1.35773e-07
1.39145e-07
1.42292e-07
1.45186e-07
1.47865e-07
1.50334e-07
1.52595e-07
1.54651e-07
1.56506e-07
1.58162e-07
1.59622e-07
1.60891e-07
1.61971e-07
1.62867e-07
1.63581e-07
1.64114e-07
1.64473e-07
1.64666e-07
1.64694e-07
1.64563e-07
1.64277e-07
1.63835e-07
1.63243e-07
1.62508e-07
1.61635e-07
1.60627e-07
1.5949e-07
1.58227e-07
1.56835e-07
1.55319e-07
1.5369e-07
1.51952e-07
1.5011e-07
1.4817e-07
1.46136e-07
1.43988e-07
1.41751e-07
1.39434e-07
1.37044e-07
1.34559e-07
1.31995e-07
1.29372e-07
1.26683e-07
1.2391e-07
1.21092e-07
1.18219e-07
1.15275e-07
1.12299e-07
1.09266e-07
1.0619e-07
1.03087e-07
9.99257e-08
9.67483e-08
9.3531e-08
9.02911e-08
8.70289e-08
8.37408e-08
8.04425e-08
7.71195e-08
7.37925e-08
7.04478e-08
6.71004e-08
6.37439e-08
6.0385e-08
5.70223e-08
5.36577e-08
5.02917e-08
4.69231e-08
4.35535e-08
4.01759e-08
3.6793e-08
3.50952e-08
3.33975e-08
3.16939e-08
2.99797e-08
2.82654e-08
2.65426e-08
2.48018e-08
2.3061e-08
2.12994e-08
1.95201e-08
1.77389e-08
1.59089e-08
1.40789e-08
1.21967e-08
1.0305e-08
8.34656e-09
6.35342e-09
4.30557e-09
3.26135e-09
2.19299e-09
1.10725e-09
0
)


113
(
0
5.86899e-09
1.13669e-08
1.65145e-08
2.13746e-08
2.59633e-08
3.0296e-08
3.4391e-08
3.82666e-08
4.19401e-08
4.54263e-08
4.87383e-08
5.18869e-08
5.48814e-08
5.77299e-08
6.04297e-08
6.29812e-08
6.54068e-08
6.77114e-08
6.9899e-08
7.19732e-08
7.39372e-08
7.57937e-08
7.75302e-08
7.91667e-08
8.07054e-08
8.21482e-08
8.3497e-08
8.47535e-08
8.59195e-08
8.69964e-08
8.7986e-08
8.88894e-08
8.97083e-08
9.0444e-08
9.10959e-08
9.16674e-08
9.21604e-08
9.25762e-08
9.29159e-08
9.31808e-08
9.33697e-08
9.34849e-08
9.35284e-08
9.35018e-08
9.3406e-08
9.32423e-08
9.30119e-08
9.27114e-08
9.23427e-08
9.19104e-08
9.1415e-08
9.08586e-08
9.02432e-08
8.95708e-08
8.88268e-08
8.8024e-08
8.71685e-08
8.62628e-08
8.52903e-08
8.42601e-08
8.31848e-08
8.2058e-08
8.08629e-08
7.96285e-08
7.83457e-08
7.69968e-08
7.56151e-08
7.41748e-08
7.26842e-08
7.11644e-08
6.95675e-08
6.79473e-08
6.62669e-08
6.45455e-08
6.27836e-08
6.09623e-08
5.9118e-08
5.71974e-08
5.52626e-08
5.32486e-08
5.12142e-08
4.91118e-08
4.6974e-08
4.47799e-08
4.25328e-08
4.02429e-08
3.78772e-08
3.54863e-08
3.29894e-08
3.04581e-08
2.91523e-08
2.78466e-08
2.65194e-08
2.51535e-08
2.37876e-08
2.24012e-08
2.09723e-08
1.95433e-08
1.80794e-08
1.65856e-08
1.50894e-08
1.35308e-08
1.19721e-08
1.03602e-08
8.73863e-09
7.06021e-09
5.35624e-09
3.6137e-09
2.72912e-09
1.82991e-09
9.20825e-10
0
)


113
(
0
4.44113e-10
8.77048e-10
1.29838e-09
1.70935e-09
2.10977e-09
2.4995e-09
2.87856e-09
3.24708e-09
3.60528e-09
3.95336e-09
4.29151e-09
4.61992e-09
4.93871e-09
5.24802e-09
5.54727e-09
5.83604e-09
6.1156e-09
6.38604e-09
6.64742e-09
6.89979e-09
7.14319e-09
7.37764e-09
7.60185e-09
7.81732e-09
8.02411e-09
8.22222e-09
8.41171e-09
8.59259e-09
8.7649e-09
8.92867e-09
9.08395e-09
9.23074e-09
9.3691e-09
9.49905e-09
9.62045e-09
9.73353e-09
9.83839e-09
9.93509e-09
1.00236e-08
1.01041e-08
1.01762e-08
1.02401e-08
1.02961e-08
1.0344e-08
1.0384e-08
1.04161e-08
1.04403e-08
1.04562e-08
1.04638e-08
1.04636e-08
1.04555e-08
1.04398e-08
1.04164e-08
1.03857e-08
1.03455e-08
1.02974e-08
1.02421e-08
1.01799e-08
1.01082e-08
1.00283e-08
9.94172e-09
9.84757e-09
9.74308e-09
9.63253e-09
9.51447e-09
9.38585e-09
9.2519e-09
9.10835e-09
8.95635e-09
8.79945e-09
8.62925e-09
8.45496e-09
8.27005e-09
8.07776e-09
7.87822e-09
7.66784e-09
7.45326e-09
7.2247e-09
6.99355e-09
6.74788e-09
6.49854e-09
6.23693e-09
5.96912e-09
5.69143e-09
5.40481e-09
5.111e-09
4.80516e-09
4.49532e-09
4.16985e-09
3.83973e-09
3.66925e-09
3.49877e-09
3.32567e-09
3.14783e-09
2.96999e-09
2.78989e-09
2.60512e-09
2.42035e-09
2.23212e-09
2.04095e-09
1.84957e-09
1.65266e-09
1.45576e-09
1.2546e-09
1.05267e-09
8.46597e-10
6.38804e-10
4.28474e-10
3.2247e-10
2.15584e-10
1.08124e-10
0
)

)


10
(

113
(
0
2.74101e-08
6.57923e-08
1.10061e-07
1.57694e-07
2.07978e-07
2.6184e-07
3.16528e-07
3.73892e-07
4.32026e-07
4.91737e-07
5.51167e-07
6.0875e-07
6.63615e-07
7.09769e-07
7.49667e-07
7.79e-07
7.94846e-07
7.97583e-07
7.83417e-07
7.56385e-07
7.185e-07
6.71333e-07
6.19846e-07
5.69077e-07
5.145e-07
4.61833e-07
4.1225e-07
3.66e-07
3.23167e-07
2.84833e-07
2.47455e-07
2.16e-07
1.885e-07
1.63909e-07
1.43091e-07
1.28e-07
1.18545e-07
1.14e-07
1.14909e-07
1.19091e-07
1.256e-07
1.30636e-07
1.334e-07
1.34e-07
1.33455e-07
1.31636e-07
1.28667e-07
1.25667e-07
1.24e-07
1.21692e-07
1.20417e-07
1.19615e-07
1.18857e-07
1.18143e-07
1.17429e-07
1.16714e-07
1.16e-07
1.15333e-07
1.14062e-07
1.12187e-07
1.10313e-07
1.0825e-07
1.0575e-07
1.02941e-07
1e-07
9.71667e-08
9.42667e-08
9.11e-08
8.78889e-08
8.46111e-08
8.13421e-08
7.80789e-08
7.47789e-08
7.14632e-08
6.824e-08
6.504e-08
6.184e-08
5.864e-08
5.548e-08
5.233e-08
4.918e-08
4.603e-08
4.28737e-08
3.97158e-08
3.679e-08
3.389e-08
3.085e-08
2.78167e-08
2.49833e-08
2.21706e-08
2.07882e-08
1.94059e-08
1.80375e-08
1.6725e-08
1.54125e-08
1.41e-08
1.29e-08
1.17e-08
1.05e-08
9.27083e-09
8.04167e-09
6.90091e-09
5.81909e-09
4.76778e-09
3.76222e-09
2.80714e-09
1.92667e-09
1.21e-09
8.68125e-10
5.045e-10
2.1475e-10
0
)


113
(
0
3.20533e-08
7.18364e-08
1.16276e-07
1.64119e-07
2.14687e-07
2.67271e-07
3.21104e-07
3.75326e-07
4.28929e-07
4.80847e-07
5.29863e-07
5.75008e-07
6.15092e-07
6.47828e-07
6.72836e-07
6.89778e-07
6.98272e-07
6.99172e-07
6.90591e-07
6.73496e-07
6.50641e-07
6.22201e-07
5.89335e-07
5.53014e-07
5.1451e-07
4.75232e-07
4.36063e-07
3.9774e-07
3.60858e-07
3.26294e-07
2.94533e-07
2.65794e-07
2.40055e-07
2.17326e-07
1.97837e-07
1.81431e-07
1.67878e-07
1.56946e-07
1.48628e-07
1.42227e-07
1.3735e-07
1.33863e-07
1.31279e-07
1.29398e-07
1.27947e-07
1.26799e-07
1.25806e-07
1.24834e-07
1.23851e-07
1.22827e-07
1.21756e-07
1.20634e-07
1.19467e-07
1.18244e-07
1.16956e-07
1.15607e-07
1.14194e-07
1.1264e-07
1.10991e-07
1.09245e-07
1.07298e-07
1.05257e-07
1.03049e-07
1.00672e-07
9.82225e-08
9.55469e-08
9.2832e-08
8.99605e-08
8.70326e-08
8.40203e-08
8.09495e-08
7.78397e-08
7.46912e-08
7.15262e-08
6.83439e-08
6.51573e-08
6.19762e-08
5.87964e-08
5.56358e-08
5.248e-08
4.93543e-08
4.62361e-08
4.31565e-08
4.00865e-08
3.70712e-08
3.4062e-08
3.11189e-08
2.81919e-08
2.53445e-08
2.25284e-08
2.1157e-08
1.97856e-08
1.8426e-08
1.71135e-08
1.5801e-08
1.44885e-08
1.32422e-08
1.19959e-08
1.07497e-08
9.57378e-09
8.3979e-09
7.26878e-09
6.17082e-09
5.10782e-09
4.09724e-09