/*--------------------------------*- C++ -*----------------------------------*\
| =========                 |                                                 |
| \\      /  F ield         | OpenFOAM: The Open Source CFD Toolbox           |
|  \\    /   O peration     | Version:  2.3.0                                 |
|   \\  /    A nd           | Web:      www.OpenFOAM.org                      |
|    \\/     M anipulation  |                                                 |
\*---------------------------------------------------------------------------*/
FoamFile
{
    version     2.0;
    format      ascii;
    class       dictionary;
    location    "constant";
    object      N;
}
// * * * * * * * * * * * * * * * * * * * * * * * * * * * * * * * * * * * * * //

N_table
13
(

10
(

113
(
0
1.17987e-22
7.31373e-22
3.2117e-21
1.29373e-20
5.9981e-20
2.49187e-19
2.19942e-18
1.5885e-17
5.51656e-17
2.93245e-16
1.50795e-15
3.49e-15
1.80875e-14
6.65031e-14
1.63584e-13
6.42877e-13
1.61963e-12
4.55866e-12
1.27227e-11
2.55202e-11
6.69707e-11
1.33543e-10
2.62556e-10
4.93494e-10
7.86236e-10
1.29804e-09
1.88267e-09
2.57211e-09
3.28862e-09
3.9755e-09
4.5255e-09
4.92415e-09
5.22541e-09
5.49585e-09
6.07728e-09
7.07095e-09
1.00067e-08
1.44677e-08
2.21259e-08
3.0565e-08
3.81733e-08
3.71174e-08
3.25078e-08
2.44838e-08
1.80046e-08
1.2146e-08
8.92816e-09
6.228e-09
4.628e-09
3.38289e-09
2.53797e-09
1.92187e-09
1.45833e-09
1.13085e-09
8.67401e-10
6.85906e-10
5.37886e-10
4.33e-10
3.47493e-10
2.82819e-10
2.30914e-10
1.89234e-10
1.56991e-10
1.28767e-10
1.071e-10
8.68294e-11
7.15083e-11
5.63582e-11
4.53127e-11
3.42673e-11
2.61525e-11
1.85959e-11
1.30274e-11
8.62653e-12
5.24844e-12
3.34219e-12
1.65868e-12
1.06266e-12
4.66642e-13
2.8103e-13
1.36008e-13
6.41186e-14
3.33664e-14
1.21768e-14
6.58933e-15
1.72454e-15
9.54817e-16
1.85092e-16
9.04613e-17
1.67101e-17
6.38071e-18
4.43429e-18
2.48786e-18
5.41429e-19
1.76917e-19
1.13723e-19
5.05296e-20
4.59387e-21
3.03628e-21
1.47868e-21
1.03359e-22
6.46878e-23
2.60161e-23
3.56026e-24
1.74267e-24
3.70326e-25
1.42919e-25
3.30125e-26
9.79657e-27
3.50371e-27
4.48143e-28
0
)


113
(
0
2.9996e-18
4.19564e-17
3.40623e-16
1.72277e-15
6.66772e-15
2.20625e-14
8.00322e-14
2.36162e-13
5.20987e-13
1.37635e-12
3.20218e-12
5.79051e-12
1.27642e-11
2.36485e-11
4.016e-11
7.14567e-11
1.11861e-10
1.78682e-10
2.70853e-10
3.85504e-10
5.58919e-10
7.60214e-10
1.02228e-09
1.34757e-09
1.71084e-09
2.19239e-09
2.73368e-09
3.36093e-09
4.13402e-09
4.98934e-09
6.01682e-09
7.1736e-09
8.41679e-09
9.84354e-09
1.12992e-08
1.27931e-08
1.42049e-08
1.55183e-08
1.66045e-08
1.73448e-08
1.78566e-08
1.78321e-08
1.74776e-08
1.68061e-08
1.56832e-08
1.44411e-08
1.29304e-08
1.13923e-08
9.79595e-09
8.28435e-09
6.86828e-09
5.62583e-09
4.49914e-09
3.59521e-09
2.79611e-09
2.1971e-09
1.67982e-09
1.30291e-09
9.89063e-10
7.60804e-10
5.85e-10
4.49743e-10
3.51914e-10
2.7026e-10
2.14996e-10
1.64909e-10
1.33174e-10
1.01952e-10
8.3033e-11
6.41136e-11
5.13403e-11
3.97376e-11
3.09198e-11
2.37375e-11
1.7744e-11
1.3461e-11
9.50085e-12
7.11647e-12
4.7321e-12
3.42739e-12
2.22947e-12
1.46463e-12
9.43399e-13
5.45642e-13
3.49339e-13
1.72993e-13
1.09742e-13
4.64903e-14
2.82718e-14
1.14462e-14
7.9213e-15
5.93999e-15
3.95868e-15
1.97737e-15
1.33248e-15
9.42154e-16
5.51827e-16
2.50207e-16
1.76694e-16
1.0318e-16
3.70082e-17
2.46715e-17
1.23348e-17
4.48002e-18
2.32948e-18
6.67863e-19
2.63506e-19
6.68364e-20
2.45019e-20
1.09764e-20
2.96164e-21
0
)


113
(
0
7.71342e-13
2.36328e-12
5.39191e-12
1.03933e-11
1.80618e-11
2.96806e-11
4.79986e-11
7.26142e-11
1.03335e-10
1.48081e-10
2.0514e-10
2.71872e-10
3.68916e-10
4.81132e-10
6.15182e-10
7.80741e-10
9.6451e-10
1.19872e-09
1.451e-09
1.71928e-09
2.07113e-09
2.44408e-09
2.85071e-09
3.28001e-09
3.72344e-09
4.23371e-09
4.75389e-09
5.28831e-09
5.84441e-09
6.40339e-09
6.95277e-09
7.49569e-09
8.03305e-09
8.49981e-09
8.94322e-09
9.35567e-09
9.68657e-09
9.97837e-09
1.02034e-08
1.0347e-08
1.04398e-08
1.04278e-08
1.03566e-08
1.02286e-08
9.99814e-09
9.73798e-09
9.39562e-09
9.02022e-09
8.57461e-09
8.10539e-09
7.60955e-09
7.08685e-09
6.54624e-09
6.01671e-09
5.49241e-09
5.00697e-09
4.5374e-09
4.05493e-09
3.56666e-09
3.14974e-09
2.77657e-09
2.4231e-09
2.08784e-09
1.78279e-09
1.52701e-09
1.28456e-09
1.08933e-09
8.96285e-10
7.55693e-10
6.15101e-10
5.08576e-10
4.0854e-10
3.3111e-10
2.66958e-10
2.1123e-10
1.67625e-10
1.27133e-10
1.01838e-10
7.65438e-11
6.03988e-11
4.51586e-11
3.42603e-11
2.58043e-11
1.8787e-11
1.41168e-11
9.77886e-12
7.32295e-12
4.86703e-12
3.56321e-12
2.29502e-12
1.90812e-12
1.59928e-12
1.29045e-12
9.8161e-13
8.07912e-13
6.59953e-13
5.11995e-13
3.84442e-13
3.09359e-13
2.34277e-13
1.63792e-13
1.27023e-13
9.02549e-14
6.13854e-14
4.25695e-14
2.61521e-14
1.59028e-14
8.38264e-15
5.40426e-15
3.33141e-15
1.54472e-15
0
)


113
(
0
2.45086e-11
5.39962e-11
9.23633e-11
1.40032e-10
1.97495e-10
2.66316e-10
3.49284e-10
4.43539e-10
5.48025e-10
6.71475e-10
8.07199e-10
9.52568e-10
1.12535e-09
1.31152e-09
1.51697e-09
1.72922e-09
1.94679e-09
2.18207e-09
2.42951e-09
2.68773e-09
2.95919e-09
3.23221e-09
3.50548e-09
3.75184e-09
3.98483e-09
4.30354e-09
4.58994e-09
4.82987e-09
5.09507e-09
5.35849e-09
5.59148e-09
5.82039e-09
6.04585e-09
6.2302e-09
6.40749e-09
6.57541e-09
6.69633e-09
6.8008e-09
6.88319e-09
6.94434e-09
6.99067e-09
6.99837e-09
6.98691e-09
6.95705e-09
6.89094e-09
6.81426e-09
6.70793e-09
6.58668e-09
6.43373e-09
6.26768e-09
6.08683e-09
5.88004e-09
5.65595e-09
5.45841e-09
5.27337e-09
5.01624e-09
4.72967e-09
4.46808e-09
4.21771e-09
3.97447e-09
3.7356e-09
3.49793e-09
3.26138e-09
3.02887e-09
2.80298e-09
2.57864e-09
2.35979e-09
2.14313e-09
1.97892e-09
1.81472e-09
1.62668e-09
1.4341e-09
1.27229e-09
1.12855e-09
1.00283e-09
9.03017e-10
8.03282e-10
7.03913e-10
6.04545e-10
5.1767e-10
4.3203e-10
3.63106e-10
3.03586e-10
2.51967e-10
2.1324e-10
1.75942e-10
1.46744e-10
1.17547e-10
9.57745e-11
7.42318e-11
6.60183e-11
5.86127e-11
5.1207e-11
4.38014e-11
3.83912e-11
3.33611e-11
2.8331e-11
2.37552e-11
2.03477e-11
1.69401e-11
1.36623e-11
1.13361e-11
9.00983e-12
6.99297e-12
5.36986e-12
3.86997e-12
2.68693e-12
1.66883e-12
1.20685e-12
7.97577e-13
3.99192e-13
0
)


113
(
0
8.0161e-11
1.5808e-10
2.41453e-10
3.31988e-10
4.30014e-10
5.36147e-10
6.51073e-10
7.72141e-10
8.9852e-10
1.03343e-09
1.173e-09
1.31625e-09
1.46671e-09
1.61958e-09
1.7759e-09
1.93566e-09
2.0967e-09
2.25987e-09
2.4234e-09
2.58727e-09
2.75005e-09
2.91189e-09
3.07143e-09
3.2322e-09
3.39398e-09
3.57133e-09
3.73436e-09
3.87679e-09
4.02769e-09
4.1673e-09
4.2565e-09
4.34599e-09
4.43665e-09
4.57581e-09
4.68192e-09
4.7442e-09
4.80413e-09
4.85996e-09
4.90578e-09
4.9402e-09
4.96703e-09
4.9759e-09
4.97877e-09
4.97588e-09
4.95727e-09
4.9335e-09
4.89214e-09
4.84599e-09
4.78967e-09
4.71875e-09
4.63139e-09
4.56554e-09
4.51404e-09
4.40049e-09
4.25773e-09
4.14989e-09
4.0563e-09
3.93658e-09
3.80512e-09
3.67781e-09
3.55302e-09
3.43984e-09
3.33735e-09
3.20018e-09
3.00642e-09
2.82362e-09
2.67965e-09
2.53756e-09
2.44026e-09
2.34297e-09
2.15076e-09
1.94046e-09
1.80427e-09
1.7116e-09
1.6132e-09
1.50656e-09
1.39945e-09
1.29005e-09
1.18065e-09
1.08068e-09
9.8163e-10
8.8958e-10
8.01463e-10
7.1755e-10
6.40496e-10
5.6506e-10
4.98798e-10
4.32535e-10
3.76114e-10
3.19997e-10
2.95429e-10
2.71963e-10
2.48498e-10
2.25032e-10
2.04936e-10
1.85481e-10
1.66026e-10
1.47521e-10
1.3146e-10
1.15398e-10
9.96658e-11
8.63551e-11
7.30444e-11
6.06362e-11
4.93767e-11
3.8482e-11
2.85254e-11
1.89581e-11
1.4277e-11
9.62314e-12
4.90073e-12
0
)


113
(
0
1.135e-10
2.16822e-10
3.16748e-10
4.16612e-10
5.17641e-10
6.20582e-10
7.25898e-10
8.32822e-10
9.411e-10
1.05123e-09
1.16207e-09
1.27345e-09
1.38522e-09
1.4968e-09
1.60809e-09
1.71832e-09
1.8279e-09
1.93568e-09
2.04191e-09
2.14676e-09
2.24832e-09
2.34839e-09
2.44528e-09
2.53902e-09
2.6309e-09
2.71744e-09
2.80155e-09
2.88215e-09
2.95768e-09
3.03053e-09
3.09807e-09
3.16131e-09
3.22154e-09
3.26911e-09
3.31574e-09
3.36112e-09
3.4e-09
3.43565e-09
3.46565e-09
3.49031e-09
3.51163e-09
3.5261e-09
3.57288e-09
3.6507e-09
3.6726e-09
3.68092e-09
3.66562e-09
3.64901e-09
3.62958e-09
3.59624e-09
3.54721e-09
3.50264e-09
3.46104e-09
3.42467e-09
3.39078e-09
3.30576e-09
3.19987e-09
3.12366e-09
3.06079e-09
2.9939e-09
2.92455e-09
2.85224e-09
2.77721e-09
2.70035e-09
2.62053e-09
2.53923e-09
2.45267e-09
2.36612e-09
2.27948e-09
2.19285e-09
2.10488e-09
2.01665e-09
1.92803e-09
1.83919e-09
1.75049e-09
1.662e-09
1.57372e-09
1.48652e-09
1.39933e-09
1.31414e-09
1.22916e-09
1.14615e-09
1.06423e-09
9.83776e-10
9.05692e-10
8.28278e-10
7.54663e-10
6.81049e-10
6.12242e-10
5.43583e-10
5.11237e-10
4.79517e-10
4.47797e-10
4.16077e-10
3.86524e-10
3.57383e-10
3.28242e-10
2.99758e-10
2.72961e-10
2.46164e-10
2.19591e-10
1.94654e-10
1.69717e-10
1.45275e-10
1.21465e-10
9.7731e-11
7.41929e-11
5.03501e-11
3.83166e-11
2.58982e-11
1.31954e-11
0
)


113
(
0
1.09176e-10
2.08107e-10
3.00253e-10
3.88412e-10
4.73862e-10
5.57266e-10
6.39108e-10
7.20039e-10
8.0022e-10
8.79239e-10
9.57522e-10
1.03523e-09
1.11143e-09
1.18692e-09
1.26136e-09
1.33416e-09
1.40616e-09
1.47621e-09
1.54487e-09
1.61231e-09
1.67718e-09
1.74291e-09
1.81188e-09
1.87329e-09
1.93037e-09
1.98378e-09
2.03559e-09
2.08509e-09
2.13138e-09
2.176e-09
2.21735e-09
2.25612e-09
2.29315e-09
2.32596e-09
2.35689e-09
2.38535e-09
2.41007e-09
2.43294e-09
2.45259e-09
2.46919e-09
2.48388e-09
2.49466e-09
2.50311e-09
2.50931e-09
2.51157e-09
2.51255e-09
2.50925e-09
2.50439e-09
2.49621e-09
2.48574e-09
2.47269e-09
2.45675e-09
2.43887e-09
2.41774e-09
2.39508e-09
2.36908e-09
2.34171e-09
2.31118e-09
2.27922e-09
2.24453e-09
2.20816e-09
2.16961e-09
2.12905e-09
2.087e-09
2.04252e-09
1.99725e-09
1.94917e-09
1.90096e-09
1.84963e-09
1.79829e-09
1.74455e-09
1.69034e-09
1.63459e-09
1.57793e-09
1.52044e-09
1.46176e-09
1.40312e-09
1.3447e-09
1.28628e-09
1.22447e-09
1.16234e-09
1.10002e-09
1.03759e-09
9.75232e-10
9.12981e-10
8.50821e-10
7.89173e-10
7.27525e-10
6.66785e-10
6.06073e-10
5.76127e-10
5.46311e-10
5.16494e-10
4.86677e-10
4.57249e-10
4.27896e-10
3.98543e-10
3.69247e-10
3.40101e-10
3.10955e-10
2.81782e-10
2.52411e-10
2.2304e-10
1.93335e-10
1.63203e-10
1.32725e-10
1.01355e-10
6.90178e-11
5.25456e-11
3.54483e-11
1.79978e-11
0
)


113
(
0
8.22053e-11
1.58068e-10
2.28622e-10
2.9526e-10
3.58678e-10
4.19142e-10
4.76825e-10
5.32711e-10
5.87079e-10
6.39106e-10
6.8984e-10
7.39557e-10
7.87104e-10
8.33797e-10
8.7926e-10
9.23089e-10
9.66162e-10
1.00754e-09
1.04784e-09
1.08717e-09
1.12464e-09
1.16136e-09
1.19653e-09
1.23034e-09
1.26334e-09
1.29422e-09
1.3242e-09
1.35289e-09
1.3798e-09
1.4058e-09
1.43002e-09
1.45285e-09
1.47474e-09
1.49439e-09
1.51304e-09
1.53037e-09
1.54573e-09
1.56011e-09
1.5728e-09
1.58387e-09
1.59394e-09
1.60194e-09
1.60871e-09
1.61428e-09
1.61776e-09
1.62055e-09
1.62106e-09
1.62072e-09
1.61858e-09
1.6152e-09
1.6104e-09
1.604e-09
1.59653e-09
1.58722e-09
1.57705e-09
1.56497e-09
1.5521e-09
1.53736e-09
1.52179e-09
1.50456e-09
1.48631e-09
1.4667e-09
1.44583e-09
1.42398e-09
1.40056e-09
1.37659e-09
1.3507e-09
1.32471e-09
1.29647e-09
1.26822e-09
1.2381e-09
1.20762e-09
1.17582e-09
1.14325e-09
1.10987e-09
1.07534e-09
1.0405e-09
1.00415e-09
9.67804e-10
9.29927e-10
8.91898e-10
8.52877e-10
8.13299e-10
7.73171e-10
7.32147e-10
6.90913e-10
6.4849e-10
6.06067e-10
5.62248e-10
5.18386e-10
4.9585e-10
4.73121e-10
4.50393e-10
4.27665e-10
4.04149e-10
3.80483e-10
3.56816e-10
3.32832e-10
3.08029e-10
2.83226e-10
2.5826e-10
2.32099e-10
2.05939e-10
1.79106e-10
1.51419e-10
1.23295e-10
9.4048e-11
6.38741e-11
4.85046e-11
3.26316e-11
1.65034e-11
0
)


113
(
0
4.36751e-11
8.49995e-11
1.24078e-10
1.6129e-10
1.96821e-10
2.30667e-10
2.6277e-10
2.9367e-10
3.23532e-10
3.51713e-10
3.78937e-10
4.05407e-10
4.30264e-10
4.54497e-10
4.77833e-10
5.00016e-10
5.21678e-10
5.42201e-10
5.62032e-10
5.8125e-10
5.99342e-10
6.16997e-10
6.33761e-10
6.49783e-10
6.65365e-10
6.79841e-10
6.93866e-10
7.07241e-10
7.19755e-10
7.31832e-10
7.43074e-10
7.53679e-10
7.63856e-10
7.73023e-10
7.81751e-10
7.89899e-10
7.97189e-10
8.04059e-10
8.10196e-10
8.15649e-10
8.20675e-10
8.24823e-10
8.28449e-10
8.31575e-10
8.33815e-10
8.35766e-10
8.36751e-10
8.37379e-10
8.37248e-10
8.36585e-10
8.3532e-10
8.33367e-10
8.30954e-10
8.27747e-10
8.24165e-10
8.19737e-10
8.14965e-10
8.09356e-10
8.03372e-10
7.96629e-10
7.8942e-10
7.81568e-10
7.73122e-10
7.64203e-10
7.54513e-10
7.44547e-10
7.33606e-10
7.22615e-10
7.10417e-10
6.98218e-10
6.84956e-10
6.71492e-10
6.57221e-10
6.42478e-10
6.27201e-10
6.11155e-10
5.94881e-10
5.77494e-10
5.60107e-10
5.4145e-10
5.22668e-10
5.02952e-10
4.82709e-10
4.6188e-10
4.40095e-10
4.18063e-10
3.94633e-10
3.71203e-10
3.46064e-10
3.20872e-10
3.0756e-10
2.94022e-10
2.80484e-10
2.66947e-10
2.52575e-10
2.38045e-10
2.23515e-10
2.08698e-10
1.93143e-10
1.77588e-10
1.6191e-10
1.45331e-10
1.28753e-10
1.1175e-10
9.42057e-11
7.64254e-11
5.80371e-11
3.92064e-11
2.96581e-11
1.9891e-11
1.00197e-11
0
)


113
(
0
3.57508e-12
7.06358e-12
1.04613e-11
1.37766e-11
1.70121e-11
2.01619e-11
2.32147e-11
2.61956e-11
2.91128e-11
3.19193e-11
3.46575e-11
3.73423e-11
3.9904e-11
4.24152e-11
4.48538e-11
4.7194e-11
4.94889e-11
5.16822e-11
5.38115e-11
5.5884e-11
5.78493e-11
5.97721e-11
6.1608e-11
6.337e-11
6.50882e-11
6.66949e-11
6.82555e-11
6.97498e-11
7.11556e-11
7.25164e-11
7.37907e-11
7.4999e-11
7.61628e-11
7.72214e-11
7.82343e-11
7.91867e-11
8.00496e-11
8.08684e-11
8.16108e-11
8.22816e-11
8.29076e-11
8.34418e-11
8.39213e-11
8.43482e-11
8.4682e-11
8.49855e-11
8.51871e-11
8.53509e-11
8.54344e-11
8.54612e-11
8.54241e-11
8.53132e-11
8.51533e-11
8.49075e-11
8.46214e-11
8.42433e-11
8.38276e-11
8.33199e-11
8.2771e-11
8.21375e-11
8.14523e-11
8.06946e-11
7.987e-11
7.89914e-11
7.80247e-11
7.70262e-11
7.5915e-11
7.47979e-11
7.35396e-11
7.22812e-11
7.08972e-11
6.94892e-11
6.79856e-11
6.64256e-11
6.48022e-11
6.30874e-11
6.13456e-11
5.94723e-11
5.7599e-11
5.55783e-11
5.35431e-11
5.14024e-11
4.92025e-11
4.69394e-11
4.45733e-11
4.21823e-11
3.965e-11
3.71177e-11
3.44262e-11
3.17298e-11
3.03213e-11
2.88937e-11
2.74661e-11
2.60385e-11
2.45482e-11
2.30459e-11
2.15435e-11
2.00221e-11
1.84514e-11
1.68807e-11
1.53027e-11
1.36715e-11
1.20404e-11
1.03868e-11
8.70483e-12
7.01156e-12
5.28933e-12
3.54768e-12
2.67107e-12
1.7854e-12
8.95595e-13
0
)

)


10
(

113
(
0
1.29468e-20
1.30428e-19
7.0403e-19
2.57384e-18
8.64322e-18
2.91354e-17
9.9196e-17
3.36368e-16
1.13193e-15
3.79049e-15
1.24887e-14
3.94389e-14
1.16222e-13
3.13184e-13
8.2437e-13
2.26722e-12
5.71996e-12
1.32417e-11
2.82464e-11
5.5901e-11
1.03476e-10
1.80735e-10
3.07801e-10
4.90406e-10
7.3585e-10
1.04532e-09
1.41297e-09
1.82611e-09
2.26785e-09
2.72569e-09
3.21085e-09
3.79624e-09
4.68336e-09
6.32153e-09
9.61328e-09
1.59648e-08
2.75545e-08
4.78368e-08
8.02832e-08
1.22077e-07
1.56218e-07
1.62479e-07
1.39512e-07
1.02834e-07
6.82431e-08
4.28381e-08
2.65475e-08
1.7048e-08
1.14161e-08
7.89095e-09
5.62063e-09
4.08872e-09
3.0083e-09
2.21574e-09
1.65272e-09
1.21709e-09
8.74849e-10
6.08154e-10
4.21231e-10
2.85978e-10
1.84318e-10
1.153e-10
7.4326e-11
4.44053e-11
2.61123e-11
1.61945e-11
9.08265e-12
5.50215e-12
3.2551e-12
1.78116e-12
1.15353e-12
6.47324e-13
4.06312e-13
2.37625e-13
1.40115e-13
8.4875e-14
4.59914e-14
2.88413e-14
1.45898e-14
9.12689e-15
4.49484e-15
2.62877e-15
1.25519e-15
6.64995e-16
3.07695e-16
1.37885e-16
6.30481e-17
1.98696e-17
1.01375e-17
2.95638e-18
2.06416e-18
1.17194e-18
5.40632e-19
3.81312e-19
2.21992e-19
1.0442e-19
7.31604e-20
4.19012e-20
2.33697e-20
1.56803e-20
8.18954e-21
5.72751e-21
3.26548e-21
2.06259e-21
1.08269e-21
6.31018e-22
2.976e-22
1.14365e-22
5.79932e-23
2.68874e-23
7.87116e-24
0
)


113
(
0
9.55417e-18
1.06972e-16
7.86827e-16
3.59664e-15
1.32403e-14
4.19715e-14
1.24277e-13
3.35083e-13
8.18894e-13
1.84252e-12
3.844e-12
7.49298e-12
1.37575e-11
2.39507e-11
4.04648e-11
6.72313e-11
1.07158e-10
1.64885e-10
2.46492e-10
3.60115e-10
5.16824e-10
7.3219e-10
1.04732e-09
1.48908e-09
2.10696e-09
2.96815e-09
4.15924e-09
5.79008e-09
7.96421e-09
1.07617e-08
1.42833e-08
1.86019e-08
2.37365e-08
2.95911e-08
3.60028e-08
4.26921e-08
4.93109e-08
5.54685e-08
6.07743e-08
6.48333e-08
6.72888e-08
6.80514e-08
6.70316e-08
6.43901e-08
6.0281e-08
5.50334e-08
4.90258e-08
4.26504e-08
3.62487e-08
3.00818e-08
2.44068e-08
1.93824e-08
1.5073e-08
1.14748e-08
8.69301e-09
6.4896e-09
4.7429e-09
3.38377e-09
2.4393e-09
1.75032e-09
1.2233e-09
8.49419e-10
6.06392e-10
4.16964e-10
2.85075e-10
2.00726e-10
1.33939e-10
9.18757e-11
6.20488e-11
3.93164e-11
2.71398e-11
1.68729e-11
1.10808e-11
6.86008e-12
4.18581e-12
2.60515e-12
1.44769e-12
9.19806e-13
4.77076e-13
3.03309e-13
1.55436e-13
9.37616e-14
4.78864e-14
2.71423e-14
1.4063e-14
7.15407e-15
3.77865e-15
1.58106e-15
9.11064e-16
3.88015e-16
2.86267e-16
1.8452e-16
1.08479e-16
7.89415e-17
4.94039e-17
2.69055e-17
1.89609e-17
1.10162e-17
6.13713e-18
3.86938e-18
1.66533e-18
1.0738e-18
4.82269e-19
2.56804e-19
9.58356e-20
4.74893e-20
1.64535e-20
4.99743e-21
2.24652e-21
1.01892e-21
3.1974e-22
0
)


113
(
0
1.04518e-12
3.31593e-12
7.8733e-12
1.5648e-11
2.82035e-11
4.81683e-11
7.89643e-11
1.24523e-10
1.87553e-10
2.7492e-10
3.9346e-10
5.50938e-10
7.54706e-10
1.01081e-09
1.33754e-09
1.75703e-09
2.2678e-09
2.8777e-09
3.59276e-09
4.42571e-09
5.39724e-09
6.51917e-09
7.80676e-09
9.21744e-09
1.07433e-08
1.23871e-08
1.41469e-08
1.60216e-08
1.80078e-08
2.00864e-08
2.22124e-08
2.42697e-08
2.62173e-08
2.80737e-08
2.99e-08
3.15855e-08
3.30636e-08
3.43304e-08
3.53596e-08
3.61457e-08
3.66336e-08
3.68245e-08
3.67491e-08
3.63941e-08
3.57887e-08
3.48903e-08
3.37668e-08
3.24898e-08
3.10021e-08
2.92868e-08
2.74225e-08
2.55104e-08
2.36018e-08
2.16977e-08
1.97788e-08
1.78618e-08
1.60193e-08
1.42794e-08
1.26697e-08
1.1143e-08
9.69306e-09
8.34088e-09
7.15469e-09
6.06454e-09
5.09296e-09
4.27986e-09
3.54134e-09
2.93113e-09
2.40643e-09
1.93132e-09
1.56515e-09
1.22941e-09
9.71486e-10
7.58287e-10
5.89102e-10
4.57062e-10
3.39395e-10
2.59312e-10
1.85343e-10
1.39978e-10
9.91099e-11
7.32137e-11
5.15529e-11
3.66292e-11
2.53564e-11
1.70227e-11
1.161e-11
7.17094e-12
4.86256e-12
2.9204e-12
2.36582e-12
1.81124e-12
1.358e-12
1.08809e-12
8.18185e-13
5.94562e-13
4.66627e-13
3.38692e-13
2.46429e-13
1.84554e-13
1.23814e-13
9.18336e-14
5.98535e-14
4.11176e-14
2.47426e-14
1.58402e-14
8.86714e-15
4.40038e-15
2.79342e-15
1.66327e-15
7.54699e-16
0
)


113
(
0
6.41529e-11
1.42955e-10
2.47776e-10
3.79706e-10
5.42371e-10
7.39542e-10
9.74629e-10
1.25058e-09
1.56979e-09
1.93421e-09
2.34533e-09
2.80235e-09
3.31017e-09
3.88469e-09
4.54891e-09
5.20867e-09
5.88487e-09
6.64437e-09
7.44154e-09
8.249e-09
9.12329e-09
1.00296e-08
1.09737e-08
1.18942e-08
1.28392e-08
1.38226e-08
1.48144e-08
1.57675e-08
1.66776e-08
1.75713e-08
1.84041e-08
1.9214e-08
2.00406e-08
2.0859e-08
2.15429e-08
2.20202e-08
2.25545e-08
2.30275e-08
2.34003e-08
2.36785e-08
2.38754e-08
2.39928e-08
2.40044e-08
2.39415e-08
2.3796e-08
2.35841e-08
2.32557e-08
2.28539e-08
2.24532e-08
2.18932e-08
2.12317e-08
2.05598e-08
1.98851e-08
1.91423e-08
1.83153e-08
1.74981e-08
1.66958e-08
1.58972e-08
1.50305e-08
1.413e-08
1.32129e-08
1.22854e-08
1.1446e-08
1.06451e-08
9.88674e-09
9.1132e-09
8.33639e-09
7.55843e-09
6.87374e-09
6.24313e-09
5.65665e-09
5.07219e-09
4.48882e-09
3.94243e-09
3.43244e-09
3.06465e-09
2.75188e-09
2.43137e-09
2.10994e-09
1.78677e-09
1.48138e-09
1.23517e-09
1.01166e-09
8.24273e-10
6.81926e-10
5.75837e-10
4.79398e-10
3.86176e-10
3.10977e-10
2.41832e-10
2.14333e-10
1.86833e-10
1.62025e-10
1.42086e-10
1.22146e-10
1.04022e-10
8.96491e-11
7.52764e-11
6.30689e-11
5.27058e-11
4.24506e-11
3.49255e-11
2.74005e-11
2.15623e-11
1.6028e-11
1.1837e-11
8.10512e-12
5.00038e-12
3.62474e-12
2.38491e-12
1.19289e-12
0
)


113
(
0
2.46588e-10
4.87233e-10
7.4718e-10
1.03102e-09
1.3412e-09
1.67838e-09
2.04192e-09
2.43054e-09
2.84266e-09
3.27665e-09
3.73089e-09
4.20373e-09
4.69356e-09
5.1987e-09
5.71827e-09
6.25047e-09
6.79163e-09
7.33974e-09
7.8927e-09
8.44837e-09
9.00452e-09
9.55884e-09
1.01078e-08
1.06566e-08
1.11779e-08
1.17971e-08
1.23333e-08
1.27714e-08
1.32661e-08
1.37214e-08
1.41551e-08
1.45966e-08
1.49245e-08
1.53661e-08
1.5655e-08
1.59076e-08
1.60865e-08
1.62971e-08
1.65802e-08
1.66975e-08
1.67594e-08
1.68458e-08
1.68773e-08
1.68756e-08
1.68432e-08
1.67697e-08
1.66817e-08
1.6533e-08
1.6386e-08
1.6178e-08
1.59075e-08
1.56354e-08
1.53562e-08
1.50034e-08
1.4755e-08
1.44172e-08
1.40031e-08
1.35385e-08
1.3117e-08
1.27453e-08
1.23243e-08
1.17722e-08
1.13796e-08
1.09764e-08
1.05201e-08
9.82827e-09
9.18707e-09
8.81714e-09
8.56327e-09
8.37668e-09
7.62576e-09
6.8741e-09
6.18245e-09
5.82237e-09
5.78859e-09
5.40001e-09
4.87414e-09
4.48099e-09
4.10333e-09
3.75234e-09
3.4084e-09
3.08796e-09
2.77962e-09
2.49055e-09
2.2188e-09
1.96101e-09
1.72599e-09
1.49857e-09
1.29964e-09
1.10879e-09
1.02274e-09
9.36698e-10
8.54932e-10
7.80907e-10
7.06882e-10
6.36326e-10
5.72943e-10
5.0956e-10
4.51145e-10
3.96962e-10
3.4307e-10
2.9658e-10
2.5009e-10
2.08791e-10
1.6843e-10
1.32437e-10
9.78466e-11
6.50195e-11
4.89982e-11
3.30343e-11
1.68261e-11
0
)


113
(
0
3.6746e-10
7.01752e-10
1.02643e-09
1.35186e-09
1.68239e-09
2.02007e-09
2.36543e-09
2.71806e-09
3.07704e-09
3.44123e-09
3.80948e-09
4.18062e-09
4.55355e-09
4.92718e-09
5.30038e-09
5.67172e-09
6.04029e-09
6.40517e-09
6.76547e-09
7.12028e-09
7.46874e-09
7.80995e-09
8.14166e-09
8.46431e-09
8.77713e-09
9.07938e-09
9.37034e-09
9.64932e-09
9.91568e-09
1.01688e-08
1.04081e-08
1.0633e-08
1.08395e-08
1.09638e-08
1.11415e-08
1.13032e-08
1.1449e-08
1.15785e-08
1.16917e-08
1.17884e-08
1.18681e-08
1.1931e-08
1.20235e-08
1.23576e-08
1.23234e-08
1.23714e-08
1.23467e-08
1.23275e-08
1.22796e-08
1.21778e-08
1.21167e-08
1.20445e-08
1.19273e-08
1.17964e-08
1.16128e-08
1.1801e-08
1.153e-08
1.07094e-08
1.04978e-08
1.02746e-08
1.00425e-08
9.80066e-09
9.54695e-09
9.28691e-09
9.01928e-09
8.70091e-09
8.38374e-09
8.09724e-09
7.80643e-09
7.51314e-09
7.21503e-09
6.91597e-09
6.61465e-09
6.31283e-09
6.01053e-09
5.70908e-09
5.40795e-09
5.10986e-09
4.8125e-09
4.5202e-09
4.22964e-09
3.94488e-09
3.66375e-09
3.38839e-09
3.11918e-09
2.85492e-09
2.60002e-09
2.34824e-09
2.10991e-09
1.87591e-09
1.76394e-09
1.65197e-09
1.54258e-09
1.43783e-09
1.33309e-09
1.23062e-09
1.13285e-09
1.03508e-09
9.40702e-10
8.49216e-10
7.57924e-10
6.7155e-10
5.85177e-10
5.01776e-10
4.18904e-10
3.37609e-10
2.5618e-10
1.74019e-10
1.32364e-10
8.9561e-11
4.56291e-11
0
)


113
(
0
3.60916e-10
6.87479e-10
9.92141e-10
1.28411e-09
1.56734e-09
1.84448e-09
2.11731e-09
2.3869e-09
2.65383e-09
2.91832e-09
3.18037e-09
3.43987e-09
3.69661e-09
3.95032e-09
4.20044e-09
4.44633e-09
4.68807e-09
4.92535e-09
5.15786e-09
5.38527e-09
5.60729e-09
5.82359e-09
6.06092e-09
6.26452e-09
6.45661e-09
6.64124e-09
6.81815e-09
6.9871e-09
7.14786e-09
7.30025e-09
7.44406e-09
7.57912e-09
7.70528e-09
7.82241e-09
7.93017e-09
8.0287e-09
8.11799e-09
8.19798e-09
8.26863e-09
8.32992e-09
8.38152e-09
8.42359e-09
8.45626e-09
8.4796e-09
8.49365e-09
8.49849e-09
8.49422e-09
8.48028e-09
8.4569e-09
8.42466e-09
8.38361e-09
8.33404e-09
8.27621e-09
8.21042e-09
8.13466e-09
8.05077e-09
7.9596e-09
7.86157e-09
7.75447e-09
7.63965e-09
7.51888e-09
7.39137e-09
7.25514e-09
7.11403e-09
6.96694e-09
6.81201e-09
6.65329e-09
6.48796e-09
6.31731e-09
6.14357e-09
5.96227e-09
5.77888e-09
5.59015e-09
5.39821e-09
5.20312e-09
5.00409e-09
4.80353e-09
4.58982e-09
4.3752e-09
4.16554e-09
3.95554e-09
3.74446e-09
3.53323e-09
3.32177e-09
3.11069e-09
2.8999e-09
2.69033e-09
2.48116e-09
2.27433e-09
2.06833e-09
1.9663e-09
1.86427e-09
1.76272e-09
1.66202e-09
1.56133e-09
1.46095e-09
1.36124e-09
1.26152e-09
1.16196e-09
1.06253e-09
9.63075e-10
8.62924e-10
7.62773e-10
6.60999e-10
5.58918e-10
4.53827e-10
3.4676e-10
2.36359e-10
1.79795e-10
1.21423e-10
6.16379e-11
0
)


113
(
0
2.74081e-10
5.26702e-10
7.61735e-10
9.83944e-10
1.1952e-09
1.39703e-09
1.59078e-09
1.77754e-09
1.95816e-09
2.1333e-09
2.30342e-09
2.46889e-09
2.62995e-09
2.78678e-09
2.93922e-09
3.08714e-09
3.23106e-09
3.37101e-09
3.50697e-09
3.6389e-09
3.76676e-09
3.89049e-09
4.00938e-09
4.12404e-09
4.23441e-09
4.34041e-09
4.44199e-09
4.53906e-09
4.63157e-09
4.71945e-09
4.80265e-09
4.88111e-09
4.95477e-09
5.02359e-09
5.08743e-09
5.14637e-09
5.20042e-09
5.24957e-09
5.29379e-09
5.33308e-09
5.36728e-09
5.39646e-09
5.42069e-09
5.43999e-09
5.45438e-09
5.46388e-09
5.46854e-09
5.46803e-09
5.46246e-09
5.45209e-09
5.43694e-09
5.41713e-09
5.39278e-09
5.36401e-09
5.32966e-09
5.2907e-09
5.24758e-09
5.20049e-09
5.14811e-09
5.09113e-09
5.03057e-09
4.96592e-09
4.89584e-09
4.82265e-09
4.74565e-09
4.66346e-09
4.57872e-09
4.48946e-09
4.39639e-09
4.3011e-09
4.20012e-09
4.09747e-09
3.99052e-09
3.88077e-09
3.76827e-09
3.65193e-09
3.5341e-09
3.41168e-09
3.28843e-09
3.16078e-09
3.03209e-09
2.89996e-09
2.7662e-09
2.62984e-09
2.49125e-09
2.35085e-09
2.20749e-09
2.06313e-09
1.91475e-09
1.76506e-09
1.68867e-09
1.61229e-09
1.53503e-09
1.45619e-09
1.37735e-09
1.29758e-09
1.2159e-09
1.13421e-09
1.05074e-09
9.65748e-10
8.80608e-10
7.91818e-10
7.03028e-10
6.10679e-10
5.17678e-10
4.20381e-10
3.20935e-10
2.18131e-10
1.65503e-10
1.11438e-10
5.63486e-11
0
)


113
(
0
1.46357e-10
2.84723e-10
4.15559e-10
5.40223e-10
6.59067e-10
7.72424e-10
8.80686e-10
9.84246e-10
1.08347e-09
1.17867e-09
1.27011e-09
1.35803e-09
1.4426e-09
1.524e-09
1.60216e-09
1.67704e-09
1.74915e-09
1.81855e-09
1.88533e-09
1.94955e-09
2.01126e-09
2.07049e-09
2.12694e-09
2.18105e-09
2.23284e-09
2.28233e-09
2.32955e-09
2.37452e-09
2.41724e-09
2.45775e-09
2.49605e-09
2.53214e-09
2.56606e-09
2.59779e-09
2.6273e-09
2.65467e-09
2.6799e-09
2.70301e-09
2.72401e-09
2.7429e-09
2.75963e-09
2.77423e-09
2.78675e-09
2.79719e-09
2.80557e-09
2.81189e-09
2.81618e-09
2.81828e-09
2.81826e-09
2.8162e-09
2.81212e-09
2.80604e-09
2.79803e-09
2.78811e-09
2.77579e-09
2.76144e-09
2.74527e-09
2.72734e-09
2.70705e-09
2.68467e-09
2.66065e-09
2.63474e-09
2.60629e-09
2.57634e-09
2.54455e-09
2.5102e-09
2.47455e-09
2.43659e-09
2.3966e-09
2.35544e-09
2.31111e-09
2.2658e-09
2.21796e-09
2.16838e-09
2.11707e-09
2.06318e-09
2.00829e-09
1.95003e-09
1.89115e-09
1.82872e-09
1.76538e-09
1.69896e-09
1.63094e-09
1.56037e-09
1.48737e-09
1.41243e-09
1.33405e-09
1.25452e-09
1.17018e-09
1.08431e-09
1.03957e-09
9.9483e-10
9.49138e-10
9.01721e-10
8.54304e-10
8.05982e-10
7.55787e-10
7.05592e-10
6.53868e-10
6.00843e-10
5.47712e-10
4.91881e-10
4.3605e-10
3.77935e-10
3.19404e-10
2.58452e-10
1.96417e-10
1.32749e-10
1.00354e-10
6.73437e-11
3.39179e-11
0
)


113
(
0
1.20129e-11
2.37305e-11
3.51412e-11
4.6278e-11
5.71356e-11
6.77099e-11
7.80013e-11
8.80134e-11
9.77514e-11
1.07221e-10
1.16426e-10
1.25373e-10
1.34063e-10
1.42501e-10
1.50671e-10
1.58562e-10
1.66206e-10
1.73607e-10
1.80766e-10
1.87684e-10
1.94362e-10
2.008e-10
2.06964e-10
2.12893e-10
2.18589e-10
2.24052e-10
2.29283e-10
2.34282e-10
2.39051e-10
2.43589e-10
2.47898e-10
2.51978e-10
2.5583e-10
2.59455e-10
2.62848e-10
2.66016e-10
2.68961e-10
2.71684e-10
2.74186e-10
2.76467e-10
2.78523e-10
2.80355e-10
2.81969e-10
2.83365e-10
2.84544e-10
2.85507e-10
2.86256e-10
2.86775e-10
2.87068e-10
2.87147e-10
2.87009e-10
2.8666e-10
2.86103e-10
2.85343e-10
2.84322e-10
2.83083e-10
2.81645e-10
2.80016e-10
2.78126e-10
2.76007e-10
2.73705e-10
2.71192e-10
2.68393e-10
2.65425e-10
2.62249e-10
2.58779e-10
2.5516e-10
2.51275e-10
2.47154e-10
2.42895e-10
2.38266e-10
2.33522e-10
2.28481e-10
2.23234e-10
2.17783e-10
2.12029e-10
2.06157e-10
1.99892e-10
1.93554e-10
1.86808e-10
1.79958e-10
1.72763e-10
1.65394e-10
1.57745e-10
1.49844e-10
1.4174e-10
1.33297e-10
1.2474e-10
1.1574e-10
1.06609e-10
1.01889e-10
9.71701e-11
9.23766e-11
8.74485e-11
8.25204e-11
7.75282e-11
7.24032e-11
6.72782e-11
6.2055e-11
5.67483e-11
5.14353e-11
4.59653e-11
4.04953e-11
3.49042e-11
2.92911e-11
2.356e-11
1.778e-11
1.19276e-11
8.97745e-12
6.00221e-12
3.01058e-12
0
)

)


10
(

113
(
0
6.9185e-19
5.97692e-18
2.91105e-17
1.07621e-16
3.66817e-16
1.21512e-15
3.86736e-15
1.16481e-14
3.28409e-14
8.84649e-14
2.25e-13
5.2625e-13
1.13462e-12
2.38077e-12
5.14333e-12
1.05e-11
1.96769e-11
3.37e-11
5.97e-11
1.00169e-10
1.615e-10
2.50667e-10
3.69385e-10
5.16308e-10
7.2375e-10
9.81667e-10
1.30333e-09
1.7125e-09
2.24917e-09
3.04083e-09
4.51091e-09
6.97333e-09
1.1125e-08
1.83091e-08
3.09e-08
5.13909e-08
8.37273e-08
1.33e-07
2.04818e-07
2.81545e-07
3.402e-07
3.43e-07
2.945e-07
2.20273e-07
1.48091e-07
9.08182e-08
5.31e-08
3.06333e-08
1.73e-08
1.1e-08
6.58417e-09
3.89923e-09
2.31571e-09
1.44429e-09
9.07714e-10
5.42286e-10
3.08e-10
2e-10
1.215e-10
7.25e-11
4.70125e-11
2.78313e-11
1.72688e-11
1.09253e-11
6.39e-12
4.44556e-12
2.71333e-12
1.83e-12
1.13956e-12
7.38444e-13
4.74737e-13
3.02632e-13
1.97211e-13
1.20368e-13
7.98e-14
4.83e-14
3.16e-14
1.86e-14
1.1908e-14
6.793e-15
4.246e-15
2.341e-15
1.39621e-15
6.91474e-16
4.2165e-16
2.0015e-16
1.1205e-16
4.41556e-17
2.47111e-17
9.62647e-18
7.17059e-18
4.71471e-18
2.62625e-18
2.0075e-18
1.38875e-18
7.7e-19
5.98e-19
4.26e-19
2.54e-19
1.87792e-19
1.21583e-19
7.96636e-20
5.39364e-20
3.35444e-20
2.11556e-20
1.22786e-20
6.40667e-21
3.19e-21
2.14e-21
1.1225e-21
4.575e-22
0
)


113
(
0
1.05422e-16
8.69793e-16
4.25505e-15
1.52045e-14
4.73787e-14
1.32971e-13
3.36906e-13
7.85217e-13
1.70753e-12
3.44434e-12
6.55741e-12
1.17029e-11
1.99089e-11
3.36622e-11
5.55112e-11
8.89735e-11
1.39773e-10
2.1164e-10
3.25378e-10
5.1056e-10
7.86689e-10
1.20469e-09
1.82808e-09
2.75379e-09
4.20163e-09
6.31636e-09
9.27164e-09
1.32608e-08
1.84945e-08
2.53896e-08
3.41267e-08
4.47451e-08
5.70018e-08
7.06186e-08
8.52618e-08
1.0032e-07
1.14984e-07
1.28411e-07
1.39366e-07
1.47295e-07
1.51765e-07
1.5213e-07
1.48796e-07
1.41547e-07
1.31269e-07
1.18828e-07
1.04949e-07
9.02787e-08
7.55986e-08
6.20246e-08
4.96972e-08
3.89636e-08
2.97151e-08
2.21694e-08
1.63321e-08
1.16165e-08
7.94293e-09
5.61165e-09
3.77222e-09
2.42466e-09
1.63855e-09
1.02065e-09
6.4967e-10
4.14136e-10
2.3665e-10
1.5834e-10
8.92703e-11
5.71581e-11
3.27518e-11
1.99045e-11
1.18096e-11
6.88312e-12
4.13734e-12
2.32616e-12
1.45169e-12
8.11402e-13
5.05535e-13
2.83272e-13
1.76805e-13
9.92866e-14
6.18187e-14
3.43635e-14
2.10175e-14
1.11988e-14
7.0705e-15
3.5745e-15
2.15582e-15
1.04475e-15
6.24778e-16
2.89331e-16
2.20217e-16
1.51104e-16
9.15042e-17
6.99582e-17
4.84122e-17
2.68662e-17
2.01815e-17
1.34968e-17
6.81209e-18
4.79595e-18
2.7798e-18
1.58449e-18
9.36388e-19
4.62366e-19
2.4946e-19
1.1795e-19
4.99235e-20
1.87737e-20
1.16526e-20