/*--------------------------------*- C++ -*----------------------------------*\
| =========                 |                                                 |
| \\      /  F ield         | OpenFOAM: The Open Source CFD Toolbox           |
|  \\    /   O peration     | Version:  2.3.0                                 |
|   \\  /    A nd           | Web:      www.OpenFOAM.org                      |
|    \\/     M anipulation  |                                                 |
\*---------------------------------------------------------------------------*/
FoamFile
{
    version     2.0;
    format      ascii;
    class       dictionary;
    location    "constant";
    object      NH2;
}
// * * * * * * * * * * * * * * * * * * * * * * * * * * * * * * * * * * * * * //

NH2_table
13
(

10
(

113
(
0
3.365e-16
5.98349e-16
8.3319e-16
1.03057e-15
1.19262e-15
1.34341e-15
1.57438e-15
1.93745e-15
2.45e-15
3.45e-15
5.22179e-15
7.6e-15
1.43296e-14
2.71876e-14
4.88646e-14
1.09544e-13
2.03866e-13
4.14841e-13
8.15092e-13
1.38319e-12
2.65829e-12
4.43037e-12
7.39333e-12
1.22289e-11
1.82124e-11
2.88335e-11
4.24087e-11
6.02348e-11
8.70453e-11
1.2155e-10
1.7655e-10
3.13478e-10
5.19013e-10
1.51964e-09
4.22911e-09
9.2038e-09
2.60085e-08
5.36759e-08
1.05068e-07
1.8121e-07
2.6687e-07
3.40783e-07
3.86467e-07
4.0503e-07
3.92948e-07
3.73927e-07
3.45994e-07
3.18005e-07
2.89897e-07
2.63439e-07
2.3884e-07
2.15875e-07
1.94e-07
1.74919e-07
1.57152e-07
1.42158e-07
1.28297e-07
1.16667e-07
1.06039e-07
9.6981e-08
8.88857e-08
8.17925e-08
7.56243e-08
6.98648e-08
6.47722e-08
5.97908e-08
5.52037e-08
5.06182e-08
4.60727e-08
4.15273e-08
3.6771e-08
3.19747e-08
2.72486e-08
2.2564e-08
1.82076e-08
1.43237e-08
1.0681e-08
8.21642e-09
5.75181e-09
4.34339e-09
3.03943e-09
2.16504e-09
1.5323e-09
1.02702e-09
7.29713e-10
4.57528e-10
3.27711e-10
1.97894e-10
1.36589e-10
7.74024e-11
6.15173e-11
4.99612e-11
3.84051e-11
2.6849e-11
2.1673e-11
1.77124e-11
1.37517e-11
1.048e-11
8.98e-12
7.48e-12
6.07e-12
5.32e-12
4.57e-12
3.90759e-12
3.35667e-12
2.80099e-12
2.23309e-12
1.61571e-12
1.29051e-12
9.21943e-13
5.3119e-13
0
)


113
(
0
3.12708e-16
5.7579e-16
8.4225e-16
1.20155e-15
1.81889e-15
3.07413e-15
6.46639e-15
1.39313e-14
2.64569e-14
5.95099e-14
1.26867e-13
2.21177e-13
4.91585e-13
9.8264e-13
1.79121e-12
3.9267e-12
7.31472e-12
1.51984e-11
3.24626e-11
5.80455e-11
1.27794e-10
2.34908e-10
4.34403e-10
8.18118e-10
1.31755e-09
2.40955e-09
3.95146e-09
6.14083e-09
9.78614e-09
1.43737e-08
2.11369e-08
3.00746e-08
4.04871e-08
5.50387e-08
7.13957e-08
9.01459e-08
1.11753e-07
1.34304e-07
1.58046e-07
1.81292e-07
2.03926e-07
2.23706e-07
2.40594e-07
2.54704e-07
2.62692e-07
2.68689e-07
2.68019e-07
2.65164e-07
2.57664e-07
2.47917e-07
2.35638e-07
2.21938e-07
2.07293e-07
1.92376e-07
1.77332e-07
1.63062e-07
1.49108e-07
1.36409e-07
1.24273e-07
1.13392e-07
1.03279e-07
9.41186e-08
8.58367e-08
7.81027e-08
7.12627e-08
6.46513e-08
5.88502e-08
5.30784e-08
4.80112e-08
4.29441e-08
3.83474e-08
3.38403e-08
2.96726e-08
2.57042e-08
2.19913e-08
1.8646e-08
1.54228e-08
1.27955e-08
1.01682e-08
8.2226e-09
6.34448e-09
4.89721e-09
3.69229e-09
2.68087e-09
1.98515e-09
1.33955e-09
9.78013e-10
6.16473e-10
4.38399e-10
2.66001e-10
2.16046e-10
1.77538e-10
1.3903e-10
1.00522e-10
8.05734e-11
6.41603e-11
4.77473e-11
3.40176e-11
2.71883e-11
2.0359e-11
1.4002e-11
1.11087e-11
8.21534e-12
5.976e-12
4.56902e-12
3.30393e-12
2.40371e-12
1.59064e-12
1.2069e-12
8.27228e-13
4.40161e-13
0
)


113
(
0
9.27134e-13
3.13419e-12
7.91625e-12
1.67549e-11
3.16679e-11
5.62886e-11
1.02497e-10
1.69516e-10
2.575e-10
4.01545e-10
6.03436e-10
8.50779e-10
1.25694e-09
1.75486e-09
2.38482e-09
3.25902e-09
4.27302e-09
5.6714e-09
7.31503e-09
9.17615e-09
1.16829e-08
1.4498e-08
1.79866e-08
2.18862e-08
2.60366e-08
3.11553e-08
3.67012e-08
4.28617e-08
4.96618e-08
5.67842e-08
6.45174e-08
7.26974e-08
8.11693e-08
8.99393e-08
9.87866e-08
1.07736e-07
1.16593e-07
1.25305e-07
1.33671e-07
1.41508e-07
1.4898e-07
1.55515e-07
1.61364e-07
1.66554e-07
1.70356e-07
1.73713e-07
1.75602e-07
1.76864e-07
1.76796e-07
1.75848e-07
1.73907e-07
1.70938e-07
1.67284e-07
1.62637e-07
1.57524e-07
1.5179e-07
1.45804e-07
1.3909e-07
1.32049e-07
1.24904e-07
1.17695e-07
1.10466e-07
1.0322e-07
9.60455e-08
8.89888e-08
8.20448e-08
7.55006e-08
6.89807e-08
6.3044e-08
5.71073e-08
5.17619e-08
4.65292e-08
4.17568e-08
3.72547e-08
3.30333e-08
2.9216e-08
2.55142e-08
2.23765e-08
1.92389e-08
1.66828e-08
1.41842e-08
1.20443e-08
1.01063e-08
8.35745e-09
6.91725e-09
5.53807e-09
4.50472e-09
3.47137e-09
2.75747e-09
2.05345e-09
1.79401e-09
1.56381e-09
1.3336e-09
1.1034e-09
9.46602e-10
8.03785e-10
6.60967e-10
5.33108e-10
4.43715e-10
3.54322e-10
2.69273e-10
2.16088e-10
1.62902e-10
1.18873e-10
8.64979e-11
5.74554e-11
3.69833e-11
2.09094e-11
1.41454e-11
8.99366e-12
4.34759e-12
0
)


113
(
0
1.53906e-10
3.48191e-10
6.12175e-10
9.52558e-10
1.37707e-09
1.90363e-09
2.56526e-09
3.34078e-09
4.22164e-09
5.30984e-09
6.54294e-09
7.88987e-09
9.58403e-09
1.13835e-08
1.33344e-08
1.56231e-08
1.80499e-08
2.07393e-08
2.36327e-08
2.67072e-08
2.99589e-08
3.33472e-08
3.70679e-08
4.08722e-08
4.47296e-08
4.88872e-08
5.31691e-08
5.763e-08
6.21049e-08
6.66286e-08
7.13232e-08
7.59011e-08
8.04024e-08
8.48048e-08
8.91738e-08
9.34985e-08
9.75355e-08
1.01442e-07
1.05133e-07
1.08551e-07
1.11792e-07
1.1464e-07
1.17222e-07
1.19549e-07
1.21352e-07
1.2299e-07
1.24102e-07
1.2498e-07
1.25364e-07
1.25406e-07
1.25062e-07
1.24192e-07
1.22971e-07
1.21535e-07
1.19999e-07
1.17858e-07
1.15471e-07
1.12558e-07
1.09408e-07
1.0617e-07
1.02878e-07
9.92813e-08
9.54033e-08
9.14514e-08
8.73791e-08
8.32562e-08
7.89538e-08
7.46571e-08
7.04964e-08
6.63357e-08
6.21474e-08
5.79537e-08
5.38915e-08
4.99065e-08
4.60281e-08
4.23032e-08
3.86423e-08
3.52939e-08
3.19456e-08
2.88883e-08
2.58598e-08
2.30993e-08
2.04896e-08
1.80219e-08
1.5786e-08
1.36104e-08
1.17762e-08
9.94211e-09
8.45632e-09
6.98132e-09
6.36155e-09
5.77896e-09
5.19638e-09
4.61379e-09
4.13984e-09
3.68659e-09
3.23333e-09
2.80912e-09
2.45959e-09
2.11006e-09
1.77019e-09
1.50114e-09
1.23209e-09
9.89559e-10
7.80774e-10
5.83848e-10
4.17412e-10
2.67753e-10
1.97668e-10
1.32453e-10
6.74425e-11
0
)


113
(
0
8.21473e-10
1.64056e-09
2.53898e-09
3.5356e-09
4.63636e-09
5.8534e-09
7.20385e-09
8.65302e-09
1.01894e-08
1.18764e-08
1.36541e-08
1.55032e-08
1.75108e-08
1.95801e-08
2.17382e-08
2.40077e-08
2.63262e-08
2.8748e-08
3.12256e-08
3.37528e-08
3.63559e-08
3.89833e-08
4.16557e-08
4.44415e-08
4.72919e-08
5.01715e-08
5.29702e-08
5.56524e-08
5.85043e-08
6.12971e-08
6.37082e-08
6.61809e-08
6.86948e-08
7.12957e-08
7.36236e-08
7.55898e-08
7.77263e-08
7.97824e-08
8.15395e-08
8.3216e-08
8.48256e-08
8.6211e-08
8.74658e-08
8.85952e-08
8.95026e-08
9.03313e-08
9.08656e-08
9.13271e-08
9.16339e-08
9.17386e-08
9.16153e-08
9.13759e-08
9.10589e-08
9.04502e-08
8.97043e-08
8.86623e-08
8.74994e-08
8.6207e-08
8.48564e-08
8.33409e-08
8.17243e-08
7.9942e-08
7.80069e-08
7.59284e-08
7.3616e-08
7.13073e-08
6.90116e-08
6.6711e-08
6.42929e-08
6.18748e-08
5.91289e-08
5.63205e-08
5.34771e-08
5.06133e-08
4.78983e-08
4.53974e-08
4.28741e-08
4.02416e-08
3.76091e-08
3.50549e-08
3.25085e-08
3.00424e-08
2.76214e-08
2.52604e-08
2.29973e-08
2.07616e-08
1.86809e-08
1.66002e-08
1.47106e-08
1.2827e-08
1.19618e-08
1.11208e-08
1.02798e-08
9.43886e-09
8.68053e-09
7.93795e-09
7.19536e-09
6.47858e-09
5.82815e-09
5.17773e-09
4.53708e-09
3.96812e-09
3.39915e-09
2.85838e-09
2.35349e-09
1.85977e-09
1.39476e-09
9.38509e-10
7.12341e-10
4.8275e-10
2.47485e-10
0
)


113
(
0
1.4869e-09
2.86159e-09
4.2128e-09
5.58273e-09
6.98771e-09
8.44012e-09
9.95072e-09
1.15035e-08
1.30931e-08
1.47415e-08
1.64212e-08
1.81254e-08
1.98757e-08
2.16403e-08
2.34256e-08
2.52299e-08
2.7041e-08
2.88621e-08
3.06834e-08
3.25048e-08
3.43161e-08
3.61204e-08
3.79081e-08
3.96742e-08
4.14275e-08
4.31375e-08
4.48252e-08
4.64808e-08
4.80852e-08
4.96615e-08
5.118e-08
5.26485e-08
5.40745e-08
5.49857e-08
5.60362e-08
5.72712e-08
5.84188e-08
5.95217e-08
6.0545e-08
6.14898e-08
6.23851e-08
6.31755e-08
6.44963e-08
6.63267e-08
6.71259e-08
6.77233e-08
6.82775e-08
6.87143e-08
6.89018e-08
6.89502e-08
6.88418e-08
6.86227e-08
6.83297e-08
6.81452e-08
6.80117e-08
6.66126e-08
6.46965e-08
6.36099e-08
6.2896e-08
6.20776e-08
6.11953e-08
6.0229e-08
5.91852e-08
5.80838e-08
5.68882e-08
5.57154e-08
5.46233e-08
5.35155e-08
5.20306e-08
5.05456e-08
4.89717e-08
4.73809e-08
4.57341e-08
4.40544e-08
4.23458e-08
4.05957e-08
3.88368e-08
3.70355e-08
3.52343e-08
3.34053e-08
3.15736e-08
2.97363e-08
2.78958e-08
2.60603e-08
2.42328e-08
2.24106e-08
2.06178e-08
1.8825e-08
1.70854e-08
1.53475e-08
1.45057e-08
1.36725e-08
1.28393e-08
1.20062e-08
1.12071e-08
1.04146e-08
9.62211e-09
8.84078e-09
8.08816e-09
7.33555e-09
6.5867e-09
5.86548e-09
5.14426e-09
4.42947e-09
3.72287e-09
3.01433e-09
2.3008e-09
1.57028e-09
1.19929e-09
8.12621e-10
4.153e-10
0
)


113
(
0
1.66173e-09
3.1817e-09
4.61193e-09
5.99314e-09
7.34423e-09
8.67605e-09
9.99761e-09
1.13154e-08
1.26308e-08
1.39442e-08
1.52562e-08
1.6567e-08
1.78726e-08
1.91742e-08
2.04703e-08
2.1755e-08
2.30334e-08
2.42958e-08
2.55451e-08
2.6783e-08
2.79947e-08
2.91365e-08
3.00875e-08
3.11328e-08
3.223e-08
3.32814e-08
3.43121e-08
3.5313e-08
3.62705e-08
3.72052e-08
3.80947e-08
3.89472e-08
3.97748e-08
4.05405e-08
4.12779e-08
4.19779e-08
4.26201e-08
4.32333e-08
4.37954e-08
4.4308e-08
4.47895e-08
4.52059e-08
4.55825e-08
4.5921e-08
4.61906e-08
4.64376e-08
4.66081e-08
4.67499e-08
4.68308e-08
4.68683e-08
4.68571e-08
4.67896e-08
4.66846e-08
4.65144e-08
4.63136e-08
4.60437e-08
4.57455e-08
4.53796e-08
4.49833e-08
4.45263e-08
4.4032e-08
4.34874e-08
4.28963e-08
4.22693e-08
4.15836e-08
4.08778e-08
4.01008e-08
3.93203e-08
3.8456e-08
3.75916e-08
3.66582e-08
3.57116e-08
3.4717e-08
3.36941e-08
3.26426e-08
3.15501e-08
3.04791e-08
2.95137e-08
2.85483e-08
2.73321e-08
2.60912e-08
2.48255e-08
2.3546e-08
2.22555e-08
2.09471e-08
1.96358e-08
1.83083e-08
1.69808e-08
1.56431e-08
1.4305e-08
1.36339e-08
1.2962e-08
1.22902e-08
1.16183e-08
1.09436e-08
1.02684e-08
9.5931e-09
8.91555e-09
8.23211e-09
7.54868e-09
6.86318e-09
6.16258e-09
5.46197e-09
4.74873e-09
4.01942e-09
3.27925e-09
2.51115e-09
1.71491e-09
1.308e-09
8.83524e-10
4.49277e-10
0
)


113
(
0
1.35744e-09
2.6167e-09
3.79454e-09
4.91299e-09
5.98312e-09
7.00946e-09
7.99528e-09
8.95526e-09
9.89354e-09
1.07989e-08
1.16862e-08
1.25595e-08
1.34027e-08
1.42342e-08
1.50487e-08
1.58406e-08
1.66218e-08
1.73794e-08
1.81215e-08
1.88499e-08
1.95514e-08
2.02419e-08
2.09096e-08
2.15569e-08
2.21922e-08
2.27953e-08
2.33845e-08
2.39537e-08
2.4495e-08
2.50219e-08
2.55205e-08
2.59967e-08
2.64578e-08
2.6882e-08
2.72897e-08
2.76755e-08
2.80281e-08
2.83641e-08
2.86712e-08
2.89504e-08
2.92123e-08
2.94379e-08
2.96417e-08
2.98244e-08
2.99693e-08
3.01019e-08
3.01927e-08
3.0268e-08
3.03101e-08
3.03287e-08
3.03209e-08
3.02825e-08
3.02237e-08
3.01294e-08
3.00184e-08
2.98697e-08
2.97055e-08
2.95039e-08
2.92856e-08
2.90334e-08
2.87606e-08
2.84593e-08
2.81319e-08
2.77839e-08
2.74022e-08
2.70088e-08
2.65737e-08
2.61365e-08
2.56491e-08
2.51617e-08
2.46316e-08
2.40934e-08
2.35242e-08
2.2937e-08
2.23303e-08
2.16959e-08
2.10537e-08
2.0374e-08
1.96943e-08
1.8975e-08
1.82519e-08
1.75023e-08
1.67377e-08
1.59579e-08
1.51533e-08
1.43428e-08
1.34986e-08
1.26545e-08
1.17708e-08
1.08859e-08
1.04266e-08
9.96207e-09
9.49752e-09
9.03298e-09
8.54741e-09
8.05785e-09
7.56829e-09
7.07058e-09
6.55194e-09
6.0333e-09
5.51064e-09
4.95847e-09
4.40631e-09
3.83798e-09
3.24909e-09
2.64988e-09
2.02412e-09
1.37671e-09
1.04641e-09
7.04419e-10
3.56537e-10
0
)


113
(
0
7.7318e-10
1.50643e-09
2.20155e-09
2.86505e-09
3.50006e-09
4.10657e-09
4.6836e-09
5.2403e-09
5.77947e-09
6.29026e-09
6.78488e-09
7.26679e-09
7.72145e-09
8.16556e-09
8.59451e-09
9.00395e-09
9.40456e-09
9.78586e-09
1.01554e-08
1.05145e-08
1.08544e-08
1.11868e-08
1.1504e-08
1.18084e-08
1.21053e-08
1.23831e-08
1.2653e-08
1.29117e-08
1.31554e-08
1.33915e-08
1.36129e-08
1.38232e-08
1.40259e-08
1.42107e-08
1.43878e-08
1.45545e-08
1.47059e-08
1.48497e-08
1.49805e-08
1.50988e-08
1.52094e-08
1.53041e-08
1.53892e-08
1.54652e-08
1.55249e-08
1.55794e-08
1.56159e-08
1.56458e-08
1.56616e-08
1.56675e-08
1.56621e-08
1.56437e-08
1.56166e-08
1.55745e-08
1.55253e-08
1.546e-08
1.5388e-08
1.53e-08
1.52047e-08
1.50947e-08
1.49757e-08
1.48442e-08
1.47011e-08
1.45486e-08
1.4381e-08
1.42079e-08
1.40154e-08
1.3822e-08
1.36044e-08
1.33869e-08
1.31479e-08
1.29048e-08
1.26454e-08
1.23764e-08
1.20965e-08
1.18008e-08
1.15005e-08
1.11773e-08
1.0854e-08
1.05046e-08
1.01525e-08
9.78092e-09
9.39844e-09
9.00373e-09
8.58905e-09
8.16921e-09
7.72011e-09
7.27101e-09
6.7861e-09
6.30008e-09
6.04209e-09
5.77936e-09
5.51663e-09
5.25391e-09
4.97374e-09
4.69025e-09
4.40676e-09
4.11728e-09
3.81239e-09
3.50749e-09
3.20004e-09
2.87382e-09
2.54759e-09
2.21253e-09
1.86622e-09
1.51499e-09
1.15114e-09
7.78106e-10
5.8883e-10
3.95017e-10
1.99047e-10
0
)


113
(
0
6.65676e-11
1.31534e-10
1.94819e-10
2.56581e-10
3.16866e-10
3.75565e-10
4.32467e-10
4.88038e-10
5.4243e-10
5.9477e-10
6.45848e-10
6.95933e-10
7.43738e-10
7.90607e-10
8.36128e-10
8.79826e-10
9.22683e-10
9.63655e-10
1.00344e-09
1.04217e-09
1.07891e-09
1.11486e-09
1.1492e-09
1.18216e-09
1.21432e-09
1.24439e-09
1.27362e-09
1.30161e-09
1.32795e-09
1.35345e-09
1.37735e-09
1.40002e-09
1.42186e-09
1.44174e-09
1.46077e-09
1.47868e-09
1.49491e-09
1.51033e-09
1.52432e-09
1.53698e-09
1.5488e-09
1.5589e-09
1.56799e-09
1.5761e-09
1.58246e-09
1.58826e-09
1.59216e-09
1.59536e-09
1.59705e-09
1.59768e-09
1.59712e-09
1.59517e-09
1.59231e-09
1.58785e-09
1.58263e-09
1.57569e-09
1.56804e-09
1.55867e-09
1.54853e-09
1.5368e-09
1.52411e-09
1.51005e-09
1.49475e-09
1.47843e-09
1.46045e-09
1.44188e-09
1.4212e-09
1.4004e-09
1.37695e-09
1.3535e-09
1.32769e-09
1.30144e-09
1.27338e-09
1.24426e-09
1.21395e-09
1.18192e-09
1.14939e-09
1.11438e-09
1.07937e-09
1.04159e-09
1.00353e-09
9.63484e-10
9.22324e-10
8.79975e-10
8.35685e-10
7.90925e-10
7.43502e-10
6.96078e-10
6.45653e-10
5.95135e-10
5.68737e-10
5.41981e-10
5.15224e-10
4.88468e-10
4.60526e-10
4.32359e-10
4.04192e-10
3.75664e-10
3.46206e-10
3.16748e-10
2.87152e-10
2.56553e-10
2.25953e-10
1.94931e-10
1.6337e-10
1.31597e-10
9.92774e-11
6.65905e-11
5.01376e-11
3.35137e-11
1.68115e-11
0
)

)


10
(

113
(
0
5.73983e-16
1.05416e-15
1.55197e-15
2.08169e-15
2.66521e-15
3.35495e-15
4.26363e-15
5.61312e-15
7.83888e-15
1.18266e-14
1.93869e-14
3.40893e-14
6.24817e-14
1.1556e-13
2.17175e-13
4.17896e-13
7.70134e-13
1.35071e-12
2.25435e-12
3.59235e-12
5.49157e-12
8.09849e-12
1.17481e-11
1.65651e-11
2.29592e-11
3.17575e-11
4.49474e-11
6.76388e-11
1.13103e-10
2.15191e-10
4.57627e-10
1.04054e-09
2.41525e-09
5.562e-09
1.26393e-08
2.75485e-08
5.67279e-08
1.09112e-07
1.92277e-07
3.04521e-07
4.27629e-07
5.32048e-07
5.9636e-07
6.1584e-07
5.9929e-07
5.61201e-07
5.14734e-07
4.69001e-07
4.2837e-07
3.93169e-07
3.62607e-07
3.35403e-07
3.10358e-07
2.86497e-07
2.63019e-07
2.3934e-07
2.15444e-07
1.91377e-07
1.67371e-07
1.44066e-07
1.21662e-07
1.00592e-07
8.21642e-08
6.5502e-08
5.11108e-08
3.98979e-08
3.0143e-08
2.28533e-08
1.7203e-08
1.25032e-08
9.55181e-09
6.96129e-09
5.24345e-09
3.88497e-09
2.88015e-09
2.17993e-09
1.59759e-09
1.24013e-09
9.16077e-10
7.24592e-10
5.51859e-10
4.4155e-10
3.48612e-10
2.83306e-10
2.32017e-10
1.92011e-10
1.63416e-10
1.38623e-10
1.23339e-10
1.0983e-10
1.05103e-10
1.00376e-10
9.61479e-11
9.28218e-11
8.94958e-11
8.62607e-11
8.32137e-11
8.01666e-11
7.68327e-11
7.32544e-11
6.9637e-11
6.50323e-11
6.04275e-11
5.47592e-11
4.88959e-11
4.17626e-11
3.39907e-11
2.51776e-11
2.03601e-11
1.48917e-11
8.70569e-12
0
)


113
(
0
5.67316e-16
1.12433e-15
1.83198e-15
2.93457e-15
4.98478e-15
9.14597e-15
1.79491e-14
3.61257e-14
7.18298e-14
1.39993e-13
2.67424e-13
5.04793e-13
9.49411e-13
1.78096e-12
3.44196e-12
7.19375e-12
1.51404e-11
3.15535e-11
6.4249e-11
1.26789e-10
2.41635e-10
4.4528e-10
8.37722e-10
1.51353e-09
2.63086e-09
4.41339e-09
7.15916e-09
1.12554e-08
1.71477e-08
2.53148e-08
3.63031e-08
5.06269e-08
6.87371e-08
9.08869e-08
1.17205e-07
1.47263e-07
1.80405e-07
2.15654e-07
2.51741e-07
2.87272e-07
3.20565e-07
3.50367e-07
3.7529e-07
3.945e-07
4.07349e-07
4.13652e-07
4.13741e-07
4.07781e-07
3.96548e-07
3.8117e-07
3.62558e-07
3.41628e-07
3.1914e-07
2.95706e-07
2.71907e-07
2.48332e-07
2.2519e-07
2.02616e-07
1.8107e-07
1.60644e-07
1.41177e-07
1.22878e-07
1.06324e-07
9.0838e-08
7.66939e-08
6.44705e-08
5.32004e-08
4.36266e-08
3.54279e-08
2.80266e-08
2.24954e-08
1.74467e-08
1.36167e-08
1.04311e-08
7.87981e-09
6.00036e-09
4.38089e-09
3.34389e-09
2.39646e-09
1.82904e-09
1.31842e-09
9.96906e-10
7.30643e-10
5.52269e-10
4.17992e-10
3.19216e-10
2.52867e-10
1.97326e-10
1.65325e-10
1.37203e-10
1.27541e-10
1.17879e-10
1.09374e-10
1.02962e-10
9.65507e-11
9.06103e-11
8.56442e-11
8.0678e-11
7.58756e-11
7.12127e-11
6.65348e-11
6.14791e-11
5.64234e-11
5.06914e-11
4.48338e-11
3.79811e-11
3.05e-11
2.20183e-11
1.73974e-11
1.22131e-11
6.60144e-12
0
)


113
(
0
1.61399e-12
5.45327e-12
1.38137e-11
2.90222e-11
5.52856e-11
9.91624e-11
1.6985e-10
2.79178e-10
4.41085e-10
6.76566e-10
1.00601e-09
1.45802e-09
2.06838e-09
2.8729e-09
3.92731e-09
5.33294e-09
7.10441e-09
9.2918e-09
1.19566e-08
1.51633e-08
1.89789e-08
2.34983e-08
2.89233e-08
3.51638e-08
4.21699e-08
5.00168e-08
5.87481e-08
6.83853e-08
7.89295e-08
9.03183e-08
1.02449e-07
1.15227e-07
1.28505e-07
1.42013e-07
1.55709e-07
1.69469e-07
1.83066e-07
1.96328e-07
2.09045e-07
2.20984e-07
2.3196e-07
2.41772e-07
2.50371e-07
2.57593e-07
2.63318e-07
2.67369e-07
2.69848e-07
2.70718e-07
2.69842e-07
2.67313e-07
2.63174e-07
2.57611e-07
2.50775e-07
2.42752e-07
2.33434e-07
2.23189e-07
2.12272e-07
2.00824e-07
1.88849e-07
1.76601e-07
1.64232e-07
1.51804e-07
1.39551e-07
1.27507e-07
1.15763e-07
1.04635e-07
9.38627e-08
8.3776e-08
7.43567e-08
6.53244e-08
5.73906e-08
4.9796e-08
4.3082e-08
3.69445e-08
3.13744e-08
2.65996e-08
2.21326e-08
1.85621e-08
1.5147e-08
1.25292e-08
1.0072e-08
8.14876e-09
6.44126e-09
5.07685e-09
3.94867e-09
3.01065e-09
2.31321e-09
1.69595e-09
1.29028e-09
9.30811e-10
8.04242e-10
6.77672e-10
5.67576e-10
4.8728e-10
4.06984e-10
3.3663e-10
2.8683e-10
2.37029e-10
1.96796e-10
1.64711e-10
1.33024e-10
1.11401e-10
8.97776e-11
7.30805e-11
5.72636e-11
4.44739e-11
3.24873e-11
2.15435e-11
1.63299e-11
1.12562e-11
6.04864e-12
0
)


113
(
0
2.49067e-10
5.62916e-10
9.90257e-10
1.53881e-09
2.22851e-09
3.0811e-09
4.11776e-09
5.35858e-09
6.82203e-09
8.52507e-09
1.04834e-08
1.27231e-08
1.52645e-08
1.81061e-08
2.12804e-08
2.47842e-08
2.85593e-08
3.26817e-08
3.71268e-08
4.1877e-08
4.69812e-08
5.24132e-08
5.81865e-08
6.41314e-08
7.02659e-08
7.66408e-08
8.33258e-08
9.0151e-08
9.69354e-08
1.0379e-07
1.10626e-07
1.17465e-07
1.24369e-07
1.31145e-07
1.37741e-07
1.44089e-07
1.50051e-07
1.55763e-07
1.6113e-07
1.66073e-07
1.70602e-07
1.74615e-07
1.78098e-07
1.81081e-07
1.83529e-07
1.85416e-07
1.86582e-07
1.87182e-07
1.87297e-07
1.86726e-07
1.85476e-07
1.83665e-07
1.81346e-07
1.78499e-07
1.74987e-07
1.71016e-07
1.66682e-07
1.6202e-07
1.56889e-07
1.51379e-07
1.45584e-07
1.3947e-07
1.33173e-07
1.26792e-07
1.20314e-07
1.13738e-07
1.07137e-07
1.00515e-07
9.39627e-08
8.74517e-08
8.11503e-08
7.49308e-08
6.89304e-08
6.31168e-08
5.74871e-08
5.22224e-08
4.70989e-08
4.24335e-08
3.78526e-08
3.37422e-08
2.97557e-08
2.61819e-08
2.28034e-08
1.97356e-08
1.69516e-08
1.43962e-08
1.21967e-08
1.01157e-08
8.43156e-09
6.8522e-09
6.18406e-09
5.51593e-09
4.89871e-09
4.37363e-09
3.84854e-09
3.3611e-09
2.9515e-09
2.5419e-09
2.18132e-09
1.86249e-09
1.54632e-09
1.29725e-09
1.04819e-09
8.43903e-10
6.47704e-10
4.89653e-10
3.45273e-10
2.19601e-10
1.62044e-10
1.08193e-10
5.50132e-11
0
)


113
(
0
1.29647e-09
2.58281e-09
3.99489e-09
5.55802e-09
7.28973e-09
9.19837e-09
1.12851e-08
1.35472e-08
1.59799e-08
1.85777e-08
2.13349e-08
2.42455e-08
2.73035e-08
3.05022e-08
3.38437e-08
3.73247e-08
4.09194e-08
4.46177e-08
4.84096e-08
5.22839e-08
5.6229e-08
6.02324e-08
6.42843e-08
6.83989e-08
7.25681e-08
7.68661e-08
8.10295e-08
8.50842e-08
8.91697e-08
9.30409e-08
9.69201e-08
1.00691e-07
1.0421e-07
1.07771e-07
1.11152e-07
1.14179e-07
1.1697e-07
1.19695e-07
1.2238e-07
1.24879e-07
1.26848e-07
1.28716e-07
1.30334e-07
1.31746e-07
1.32872e-07
1.3375e-07
1.34412e-07
1.34722e-07
1.34837e-07
1.34705e-07
1.34242e-07
1.33506e-07
1.32524e-07
1.3126e-07
1.29838e-07
1.28174e-07
1.26248e-07
1.24067e-07
1.21611e-07
1.19053e-07
1.16355e-07
1.13446e-07
1.10297e-07
1.07052e-07
1.03705e-07
1.00061e-07
9.63547e-08
9.26306e-08
8.89541e-08
8.53051e-08
8.12682e-08
7.71556e-08
7.28624e-08
6.87741e-08
6.48874e-08
6.10455e-08
5.72211e-08
5.34502e-08
4.96957e-08
4.60752e-08
4.24966e-08
3.90571e-08
3.5699e-08
3.24702e-08
2.93704e-08
2.63744e-08
2.35633e-08
2.08139e-08
1.8314e-08
1.58898e-08
1.47657e-08
1.36417e-08
1.25604e-08
1.15566e-08
1.05528e-08
9.58583e-09
8.69499e-09
7.80414e-09
6.96899e-09
6.18127e-09
5.39699e-09
4.69965e-09
4.00231e-09
3.36799e-09
2.74504e-09
2.17545e-09
1.62216e-09
1.08806e-09
8.24321e-10
5.58186e-10
2.85678e-10
0
)


113
(
0
2.29496e-09
4.40568e-09
6.47898e-09
8.57783e-09
1.07308e-08
1.29525e-08
1.52477e-08
1.76146e-08
2.00483e-08
2.25421e-08
2.50891e-08
2.7682e-08
3.0314e-08
3.29784e-08
3.567e-08
3.83811e-08
4.11023e-08
4.38273e-08
4.65499e-08
4.92639e-08
5.19631e-08
5.46413e-08
5.72866e-08
5.98966e-08
6.24654e-08
6.49869e-08
6.74553e-08
6.98647e-08
7.22093e-08
7.44836e-08
7.6682e-08
7.87992e-08
8.07937e-08
8.20077e-08
8.38337e-08
8.55606e-08
8.71853e-08
8.87045e-08
9.0115e-08
9.14142e-08
9.25959e-08
9.36599e-08
9.48772e-08
9.75803e-08
9.85046e-08
9.92872e-08
9.99288e-08
1.00319e-07
1.00505e-07
1.00507e-07
1.00331e-07
9.99388e-08
9.93506e-08
9.86428e-08
9.75843e-08
9.64016e-08
9.43773e-08
9.16643e-08
9.04509e-08
8.91172e-08
8.7691e-08
8.61602e-08
8.44953e-08
8.27557e-08
8.09253e-08
7.92799e-08
7.75348e-08
7.54045e-08
7.32013e-08
7.09557e-08
6.86106e-08
6.62391e-08
6.38009e-08
6.13256e-08
5.88138e-08
5.62618e-08
5.36941e-08
5.1093e-08
4.84871e-08
4.58658e-08
4.32454e-08
4.06278e-08
3.80197e-08
3.54266e-08
3.28582e-08
3.03096e-08
2.78085e-08
2.53232e-08
2.29175e-08
2.05403e-08
1.93849e-08
1.82296e-08
1.70927e-08
1.59892e-08
1.48857e-08
1.37994e-08
1.27489e-08
1.16983e-08
1.06743e-08
9.67303e-09
8.67324e-09
7.7117e-09
6.75015e-09
5.80958e-09
4.87269e-09
3.94141e-09
3.00329e-09
2.04872e-09
1.56206e-09
1.05901e-09
5.40703e-10
0
)


113
(
0
2.51114e-09
4.79866e-09
6.94829e-09
9.02198e-09
1.10472e-08
1.30425e-08
1.50205e-08
1.69885e-08
1.89503e-08
2.09075e-08
2.28597e-08
2.48061e-08
2.6745e-08
2.86743e-08
3.05907e-08
3.249e-08
3.43712e-08
3.62317e-08
3.8069e-08
3.98805e-08
4.16637e-08
4.34162e-08
4.46337e-08
4.61933e-08
4.77717e-08
4.9305e-08
5.07911e-08
5.22276e-08
5.36123e-08
5.49433e-08
5.62187e-08
5.74363e-08
5.85947e-08
5.9692e-08
6.07252e-08
6.16946e-08
6.25993e-08
6.34382e-08
6.42102e-08
6.49145e-08
6.55479e-08
6.61109e-08
6.66036e-08
6.70259e-08
6.73772e-08
6.76575e-08
6.78668e-08
6.79999e-08
6.80579e-08
6.80443e-08
6.7959e-08
6.78036e-08
6.75794e-08
6.72884e-08
6.69125e-08
6.64663e-08
6.59567e-08
6.53865e-08
6.47353e-08
6.40141e-08
6.32381e-08
6.23996e-08
6.14786e-08
6.05105e-08
5.94845e-08
5.83806e-08
5.72384e-08
5.60287e-08
5.47627e-08
5.3464e-08
5.20825e-08
5.06772e-08
4.92106e-08
4.77052e-08
4.61616e-08
4.45668e-08
4.29522e-08
4.1523e-08
4.00847e-08
3.83097e-08
3.65256e-08
3.4711e-08
3.28847e-08
3.10397e-08
2.91831e-08
2.73171e-08
2.54423e-08
2.35645e-08
2.16827e-08
1.98011e-08
1.88606e-08
1.79201e-08
1.69799e-08
1.60401e-08
1.51003e-08
1.416e-08
1.32184e-08
1.22769e-08
1.13312e-08
1.0382e-08
9.43227e-09
8.46673e-09
7.50119e-09
6.51268e-09
5.51987e-09
4.49035e-09
3.43825e-09
2.3486e-09
1.78872e-09
1.20919e-09
6.14492e-10
0
)


113
(
0
2.01232e-09
3.87409e-09
5.61333e-09
7.26391e-09
8.83938e-09
1.03508e-08
1.18077e-08
1.32181e-08
1.4588e-08
1.59219e-08
1.72231e-08
1.84941e-08
1.97366e-08
2.09518e-08
2.21385e-08
2.32958e-08
2.44271e-08
2.55324e-08
2.66113e-08
2.76635e-08
2.86886e-08
2.96858e-08
3.06503e-08
3.15858e-08
3.24919e-08
3.33677e-08
3.42126e-08
3.50258e-08
3.58068e-08
3.65549e-08
3.72694e-08
3.79497e-08
3.85952e-08
3.92054e-08
3.9779e-08
4.03163e-08
4.08173e-08
4.12815e-08
4.17087e-08
4.20986e-08
4.24496e-08
4.27623e-08
4.30367e-08
4.3273e-08
4.3471e-08
4.36307e-08
4.37522e-08
4.38327e-08
4.38729e-08
4.38745e-08
4.38376e-08
4.37628e-08
4.36509e-08
4.35029e-08
4.33087e-08
4.30762e-08
4.28088e-08
4.25081e-08
4.21626e-08
4.17779e-08
4.13624e-08
4.09116e-08
4.04137e-08
3.98885e-08
3.93297e-08
3.87249e-08
3.80973e-08
3.74289e-08
3.67258e-08
3.60025e-08
3.52266e-08
3.44351e-08
3.36033e-08
3.27448e-08
3.186e-08
3.09379e-08
3.00014e-08
2.90195e-08
2.80292e-08
2.69945e-08
2.5949e-08
2.48679e-08
2.37696e-08
2.2644e-08
2.14943e-08
2.03252e-08
1.91239e-08
1.79119e-08
1.66562e-08
1.53864e-08
1.4735e-08
1.40836e-08
1.3423e-08
1.27458e-08
1.20686e-08
1.1382e-08
1.06757e-08
9.96942e-09
9.24526e-09
8.50587e-09
7.76507e-09
6.98851e-09
6.21195e-09
5.40109e-09
4.58394e-09
3.72587e-09
2.84748e-09
1.93742e-09
1.47088e-09
9.90873e-10
5.01308e-10
0
)


113
(
0
1.12902e-09
2.19816e-09
3.21093e-09
4.17752e-09
5.10058e-09
5.98265e-09
6.82667e-09
7.63559e-09
8.41213e-09
9.15866e-09
9.87717e-09
1.05694e-08
1.12367e-08
1.18802e-08
1.24995e-08
1.30945e-08
1.36686e-08
1.42225e-08
1.47567e-08
1.52717e-08
1.57678e-08
1.62454e-08
1.6702e-08
1.71408e-08
1.75621e-08
1.7966e-08
1.83527e-08
1.87222e-08
1.90747e-08
1.94101e-08
1.97287e-08
2.00304e-08
2.03153e-08
2.05834e-08
2.08343e-08
2.10686e-08
2.12863e-08
2.14875e-08
2.16722e-08
2.18405e-08
2.19918e-08
2.21264e-08
2.22446e-08
2.23464e-08
2.24318e-08
2.25009e-08
2.25538e-08
2.25894e-08
2.26079e-08
2.26101e-08
2.2596e-08
2.25659e-08
2.25201e-08
2.2459e-08
2.23783e-08
2.22811e-08
2.21691e-08
2.20427e-08
2.18969e-08
2.17339e-08
2.15575e-08
2.13654e-08
2.11522e-08
2.09267e-08
2.06858e-08
2.04235e-08
2.01505e-08
1.9858e-08
1.95484e-08
1.92289e-08
1.88826e-08
1.85281e-08
1.81521e-08
1.77612e-08
1.73556e-08
1.6928e-08
1.64917e-08
1.60266e-08
1.5556e-08
1.5055e-08
1.45459e-08
1.40104e-08
1.34609e-08
1.28893e-08
1.22967e-08
1.16872e-08
1.10477e-08
1.03983e-08
9.70715e-09
9.00258e-09
8.63462e-09
8.26667e-09
7.89043e-09
7.49921e-09
7.10799e-09
6.70891e-09
6.29356e-09
5.87822e-09
5.44962e-09
5.00973e-09
4.56891e-09
4.10471e-09
3.64052e-09
3.15655e-09
2.66898e-09
2.16047e-09
1.64262e-09
1.11066e-09
8.39828e-10
5.63689e-10
2.83967e-10
0
)


113
(
0
9.60241e-11
1.89698e-10
2.80931e-10
3.69983e-10
4.56814e-10
5.41389e-10
6.23712e-10
7.03812e-10
7.81729e-10
8.57506e-10
9.31182e-10
1.00279e-09
1.07237e-09
1.13993e-09
1.20535e-09
1.26855e-09
1.32979e-09
1.38908e-09
1.44645e-09
1.50189e-09
1.55542e-09
1.60703e-09
1.65646e-09
1.70401e-09
1.7497e-09
1.79353e-09
1.83551e-09
1.87564e-09
1.91393e-09
1.95038e-09
1.985e-09
2.01778e-09
2.04875e-09
2.0779e-09
2.10519e-09
2.13069e-09
2.1544e-09
2.17634e-09
2.19651e-09
2.21492e-09
2.23151e-09
2.24632e-09
2.25938e-09
2.2707e-09
2.28028e-09
2.28813e-09
2.29427e-09
2.29856e-09
2.30104e-09
2.30181e-09
2.30084e-09
2.29817e-09
2.29384e-09
2.28788e-09
2.27983e-09
2.27002e-09
2.25862e-09
2.24569e-09
2.23066e-09
2.21379e-09
2.19546e-09
2.17543e-09
2.1531e-09
2.12941e-09
2.10405e-09
2.07633e-09
2.04742e-09
2.01636e-09
1.9834e-09
1.94935e-09
1.9123e-09
1.87434e-09
1.83399e-09
1.79197e-09
1.74832e-09
1.70222e-09
1.65517e-09
1.60496e-09
1.55417e-09
1.50009e-09
1.44517e-09
1.38747e-09
1.32836e-09
1.267e-09
1.20361e-09
1.13859e-09
1.07082e-09
1.00214e-09
9.2989e-10
8.56576e-10
8.18681e-10
7.80785e-10
7.4229e-10
7.0271e-10
6.63129e-10
6.2303e-10
5.8186e-10
5.4069e-10
4.98728e-10
4.56091e-10
4.13404e-10
3.69449e-10
3.25494e-10
2.80561e-10
2.3545e-10
1.89387e-10
1.42929e-10
9.58856e-11
7.21707e-11
4.82531e-11
2.42031e-11
0
)

)


10
(

113
(
0
1.05452e-15
2.07077e-15
3.29132e-15
4.80529e-15
6.76957e-15
9.4612e-15
1.34009e-14
1.95568e-14
2.99678e-14
4.88088e-14
8.2675e-14
1.415e-13
2.40615e-13
4.06769e-13
7.1e-13
1.2075e-12
1.95154e-12
2.98e-12
4.68e-12
7.15538e-12
1.094e-11
1.68333e-11
2.58231e-11
3.94385e-11
6.7575e-11
1.21125e-10
2.24667e-10
4.22e-10
7.8525e-10
1.50775e-09
3.15091e-09
6.22e-09
1.179e-08
2.21455e-08
4.16e-08
7.50182e-08
1.29364e-07
2.13e-07
3.29364e-07
4.67e-07
6.166e-07
7.33545e-07
8.129e-07
8.4e-07
8.22727e-07
7.72273e-07
7.03333e-07
6.28667e-07
5.52e-07
4.86615e-07
4.215e-07
3.62077e-07
3.1e-07
2.65e-07
2.24571e-07
1.87e-07
1.52e-07
1.24667e-07
1.00906e-07
8.07187e-08
6.46938e-08
5.04063e-08
3.90937e-08
3.05118e-08
2.31e-08
1.84333e-08
1.41e-08
1.11e-08
8.53556e-09
6.62444e-09
5.18105e-09
4.04947e-09
3.21632e-09
2.51105e-09
2.042e-09
1.632e-09
1.346e-09
1.091e-09
9.108e-10
7.493e-10
6.37e-10
5.37e-10
4.63105e-10
3.95737e-10
3.5165e-10
3.1015e-10
2.79e-10
2.49889e-10
2.28778e-10
2.09059e-10
2.00824e-10
1.92588e-10
1.845e-10
1.77e-10
1.695e-10
1.62e-10
1.54333e-10
1.46667e-10
1.39e-10
1.29833e-10
1.20667e-10
1.10973e-10
1.00927e-10
9.04111e-11
7.91889e-11
6.69857e-11
5.41833e-11
4.16e-11
3.3975e-11
2.475e-11
1.5e-11
0
)


113
(
0
1.16458e-15
2.57711e-15
4.70615e-15
8.28612e-15
1.49489e-14
2.80633e-14
5.3897e-14
1.04309e-13
2.0284e-13
3.92382e-13
7.64073e-13
1.46911e-12
2.80013e-12
5.65767e-12
1.17417e-11
2.4077e-11
4.85025e-11
9.02233e-11
1.73387e-10
3.41988e-10
6.33039e-10
1.1293e-09
1.94306e-09
3.24745e-09
5.4487e-09
8.83838e-09
1.38044e-08
2.08137e-08
3.04099e-08
4.3685e-08
6.13197e-08
8.39352e-08
1.11504e-07
1.44063e-07
1.8186e-07
2.24158e-07
2.69963e-07
3.17881e-07
3.65936e-07
4.11947e-07
4.54006e-07
4.89734e-07
5.18203e-07
5.37208e-07
5.46785e-07
5.46936e-07
5.37823e-07
5.20687e-07
4.96317e-07
4.6488e-07
4.30229e-07
3.93112e-07
3.5486e-07
3.16416e-07
2.79446e-07
2.44075e-07
2.10553e-07
1.81055e-07
1.53879e-07
1.29025e-07
1.08367e-07
8.94569e-08
7.35348e-08
6.02698e-08
4.81436e-08
3.93262e-08
3.10409e-08
2.48835e-08
1.95181e-08
1.53407e-08
1.2031e-08
9.29987e-09
7.28013e-09
5.56529e-09
4.39109e-09
3.35206e-09
2.65417e-09
2.04156e-09
1.63184e-09
1.27285e-09
1.0321e-09
8.20907e-10
6.77711e-10
5.51513e-10
4.69181e-10
3.91722e-10
3.39942e-10
2.92589e-10
2.59415e-10
2.28931e-10
2.16825e-10
2.0472e-10
1.93053e-10
1.8314e-10
1.73227e-10
1.63314e-10
1.54097e-10
1.4488e-10
1.35663e-10
1.26232e-10
1.16802e-10
1.06956e-10
9.68344e-11
8.6315e-11
7.51994e-11
6.3383e-11
5.07532e-11
3.6738e-11
2.89341e-11
2.08708e-11