/*--------------------------------*- C++ -*----------------------------------*\
| =========                 |                                                 |
| \\      /  F ield         | OpenFOAM: The Open Source CFD Toolbox           |
|  \\    /   O peration     | Version:  2.3.0                                 |
|   \\  /    A nd           | Web:      www.OpenFOAM.org                      |
|    \\/     M anipulation  |                                                 |
\*---------------------------------------------------------------------------*/
FoamFile
{
    version     2.0;
    format      ascii;
    class       dictionary;
    location    "constant";
    object      NH3;
}
// * * * * * * * * * * * * * * * * * * * * * * * * * * * * * * * * * * * * * //

NH3_table
13
(

10
(

113
(
0
2.32583e-15
4.60193e-15
7.0008e-15
9.63202e-15
1.26238e-14
1.61159e-14
2.03328e-14
2.53407e-14
3.12166e-14
4.00245e-14
5.31974e-14
6.98e-14
1.08291e-13
1.71236e-13
2.69373e-13
4.90227e-13
8.01726e-13
1.40599e-12
2.39883e-12
3.73626e-12
6.27366e-12
9.59012e-12
1.47444e-11
2.25654e-11
3.20292e-11
4.84888e-11
6.96087e-11
9.74348e-11
1.43252e-10
2.06625e-10
3.19125e-10
6.45748e-10
1.1595e-09
4.13434e-09
1.42041e-08
3.36788e-08
1.26119e-07
3.21595e-07
7.60835e-07
1.7773e-06
3.18696e-06
5.57826e-06
8.29222e-06
1.13162e-05
1.43249e-05
1.72888e-05
1.99145e-05
2.23919e-05
2.45541e-05
2.65294e-05
2.82941e-05
2.98125e-05
3.11667e-05
3.23249e-05
3.33909e-05
3.42272e-05
3.49698e-05
3.55667e-05
3.60981e-05
3.64476e-05
3.66857e-05
3.68e-05
3.68e-05
3.67296e-05
3.65444e-05
3.62991e-05
3.58404e-05
3.53745e-05
3.47382e-05
3.41018e-05
3.33158e-05
3.25014e-05
3.16041e-05
3.06581e-05
2.9679e-05
2.86522e-05
2.76119e-05
2.65058e-05
2.53996e-05
2.42978e-05
2.31965e-05
2.20637e-05
2.09133e-05
1.9774e-05
1.86529e-05
1.7528e-05
1.63812e-05
1.52344e-05
1.40397e-05
1.28435e-05
1.22541e-05
1.16673e-05
1.10806e-05
1.04939e-05
9.86674e-06
9.23191e-06
8.59708e-06
7.9619e-06
7.32582e-06
6.68975e-06
6.05164e-06
5.39866e-06
4.74567e-06
4.08463e-06
3.41333e-06
2.73988e-06
2.06086e-06
1.37036e-06
1.02211e-06
6.73543e-07
3.32905e-07
0
)


113
(
0
2.37186e-15
4.90334e-15
7.78224e-15
1.13681e-14
1.62091e-14
2.35016e-14
3.74405e-14
6.2424e-14
1.00662e-13
1.89616e-13
3.67621e-13
6.15595e-13
1.42186e-12
3.17509e-12
6.291e-12
1.73116e-11
3.66416e-11
8.68921e-11
2.18122e-10
4.21165e-10
1.06811e-09
2.12906e-09
4.22797e-09
8.64475e-09
1.45384e-08
2.89134e-08
5.07974e-08
8.34869e-08
1.44044e-07
2.24475e-07
3.53465e-07
5.43577e-07
7.75668e-07
1.14985e-06
1.60837e-06
2.17868e-06
2.95289e-06
3.8363e-06
4.91767e-06
6.18795e-06
7.57309e-06
9.17811e-06
1.08855e-05
1.26913e-05
1.45962e-05
1.65219e-05
1.84639e-05
2.0378e-05
2.22326e-05
2.40028e-05
2.56778e-05
2.72088e-05
2.86437e-05
2.98925e-05
3.10537e-05
3.20133e-05
3.28907e-05
3.35758e-05
3.41744e-05
3.46079e-05
3.49401e-05
3.51437e-05
3.52287e-05
3.52264e-05
3.50817e-05
3.48907e-05
3.4536e-05
3.41736e-05
3.363e-05
3.30863e-05
3.24049e-05
3.16974e-05
3.09054e-05
3.00638e-05
2.91787e-05
2.82308e-05
2.72697e-05
2.62445e-05
2.52194e-05
2.41464e-05
2.30688e-05
2.1969e-05
2.08569e-05
1.97359e-05
1.86003e-05
1.74615e-05
1.63053e-05
1.5149e-05
1.39702e-05
1.27908e-05
1.21906e-05
1.1587e-05
1.09834e-05
1.03798e-05
9.76321e-06
9.14408e-06
8.52496e-06
7.90141e-06
7.26648e-06
6.63155e-06
5.99484e-06
5.34512e-06
4.69539e-06
4.04016e-06
3.37792e-06
2.71269e-06
2.03975e-06
1.36043e-06
1.01926e-06
6.79665e-07
3.45111e-07
0
)


113
(
0
1.79593e-11
6.23281e-11
1.61861e-10
3.51644e-10
6.80324e-10
1.23511e-09
2.2783e-09
3.88387e-09
6.06202e-09
9.69077e-09
1.50539e-08
2.17798e-08
3.32152e-08
4.75735e-08
6.61381e-08
9.38621e-08
1.2662e-07
1.72776e-07
2.30801e-07
2.99351e-07
3.93842e-07
5.01911e-07
6.40423e-07
8.10482e-07
9.99394e-07
1.24264e-06
1.51426e-06
1.82672e-06
2.2017e-06
2.61084e-06
3.08969e-06
3.62475e-06
4.19775e-06
4.8678e-06
5.58014e-06
6.34856e-06
7.19753e-06
8.0848e-06
9.03719e-06
1.00442e-05
1.10837e-05
1.21817e-05
1.33048e-05
1.44521e-05
1.56239e-05
1.6801e-05
1.79831e-05
1.91584e-05
2.03188e-05
2.14526e-05
2.25564e-05
2.36087e-05
2.46267e-05
2.5566e-05
2.64682e-05
2.7271e-05
2.80332e-05
2.86857e-05
2.92889e-05
2.97788e-05
3.01991e-05
3.05236e-05
3.07597e-05
3.09243e-05
3.09722e-05
3.09797e-05
3.08436e-05
3.07006e-05
3.03898e-05
3.0079e-05
2.96332e-05
2.91617e-05
2.85999e-05
2.79851e-05
2.73195e-05
2.65807e-05
2.58237e-05
2.49775e-05
2.41313e-05
2.32015e-05
2.22634e-05
2.12798e-05
2.02704e-05
1.92387e-05
1.81704e-05
1.7095e-05
1.5979e-05
1.4863e-05
1.37125e-05
1.25609e-05
1.19717e-05
1.13783e-05
1.07848e-05
1.01913e-05
9.5852e-06
8.97664e-06
8.36807e-06
7.75253e-06
7.11902e-06
6.48551e-06
5.85161e-06
5.21481e-06
4.57802e-06
3.93681e-06
3.28997e-06
2.64209e-06
1.99155e-06
1.34627e-06
1.02518e-06
7.06284e-07
3.779e-07
0
)


113
(
0
6.76116e-09
1.55734e-08
2.79073e-08
4.42322e-08
6.50959e-08
9.16474e-08
1.26081e-07
1.67456e-07
2.15352e-07
2.76703e-07
3.48048e-07
4.27244e-07
5.30078e-07
6.41772e-07
7.66216e-07
9.15775e-07
1.07758e-06
1.2685e-06
1.47624e-06
1.6989e-06
1.9587e-06
2.23435e-06
2.54337e-06
2.87897e-06
3.2304e-06
3.62511e-06
4.04237e-06
4.49208e-06
4.97249e-06
5.47041e-06
6.00531e-06
6.5666e-06
7.14563e-06
7.76809e-06
8.40543e-06
9.06248e-06
9.74784e-06
1.04459e-05
1.11648e-05
1.18987e-05
1.26407e-05
1.33936e-05
1.41508e-05
1.49122e-05
1.56717e-05
1.64296e-05
1.71762e-05
1.79162e-05
1.86423e-05
1.93503e-05
2.00381e-05
2.06954e-05
2.13326e-05
2.1928e-05
2.25038e-05
2.30302e-05
2.35363e-05
2.39796e-05
2.43947e-05
2.47481e-05
2.50637e-05
2.53239e-05
2.5533e-05
2.56979e-05
2.57906e-05
2.58571e-05
2.58304e-05
2.57988e-05
2.56475e-05
2.54961e-05
2.52474e-05
2.49801e-05
2.46344e-05
2.42426e-05
2.38043e-05
2.3299e-05
2.27757e-05
2.21645e-05
2.15533e-05
2.0844e-05
2.01249e-05
1.93523e-05
1.85496e-05
1.77055e-05
1.67939e-05
1.58699e-05
1.48758e-05
1.38818e-05
1.28442e-05
1.18054e-05
1.1265e-05
1.07181e-05
1.01711e-05
9.62419e-06
9.05794e-06
8.48802e-06
7.9181e-06
7.34306e-06
6.75485e-06
6.16663e-06
5.577e-06
4.97697e-06
4.37694e-06
3.7757e-06
3.17292e-06
2.57067e-06
1.96978e-06
1.36228e-06
1.05538e-06
7.31778e-07
3.88563e-07
0
)


113
(
0
6.15936e-08
1.24747e-07
1.95942e-07
2.76819e-07
3.68165e-07
4.71578e-07
5.89594e-07
7.18998e-07
8.58664e-07
1.01714e-06
1.18788e-06
1.36825e-06
1.57195e-06
1.78568e-06
2.01383e-06
2.26225e-06
2.52015e-06
2.79955e-06
3.09272e-06
3.39812e-06
3.72672e-06
4.06445e-06
4.42083e-06
4.79891e-06
5.18966e-06
5.60348e-06
6.02369e-06
6.4531e-06
6.89429e-06
7.34318e-06
7.80999e-06
8.2842e-06
8.76342e-06
9.25629e-06
9.75253e-06
1.02532e-05
1.07591e-05
1.12665e-05
1.17755e-05
1.22837e-05
1.27916e-05
1.32993e-05
1.38028e-05
1.43025e-05
1.47926e-05
1.52792e-05
1.57513e-05
1.62169e-05
1.66684e-05
1.71061e-05
1.75281e-05
1.79279e-05
1.83129e-05
1.86757e-05
1.9028e-05
1.93435e-05
1.96441e-05
1.99101e-05
2.01605e-05
2.03733e-05
2.0563e-05
2.07158e-05
2.08346e-05
2.09295e-05
2.09857e-05
2.10252e-05
2.10057e-05
2.09827e-05
2.08753e-05
2.0768e-05
2.05816e-05
2.03801e-05
2.01277e-05
1.98453e-05
1.95186e-05
1.91281e-05
1.87278e-05
1.82791e-05
1.78304e-05
1.73033e-05
1.67684e-05
1.61795e-05
1.55603e-05
1.49101e-05
1.42095e-05
1.34974e-05
1.27198e-05
1.19423e-05
1.10959e-05
1.02474e-05
9.79927e-06
9.34365e-06
8.88803e-06
8.43241e-06
7.95531e-06
7.47411e-06
6.99291e-06
6.50657e-06
6.007e-06
5.50743e-06
5.00643e-06
4.49496e-06
3.98348e-06
3.46711e-06
2.94449e-06
2.41612e-06
1.87297e-06
1.30512e-06
1.01281e-06
6.97275e-07
3.64385e-07
0
)


113
(
0
1.66041e-07
3.23035e-07
4.81013e-07
6.44557e-07
8.15642e-07
9.96253e-07
1.18869e-06
1.39015e-06
1.59965e-06
1.82317e-06
2.05519e-06
2.29388e-06
2.5475e-06
2.80703e-06
3.07507e-06
3.35415e-06
3.63821e-06
3.9331e-06
4.23441e-06
4.54141e-06
4.8584e-06
5.17909e-06
5.50717e-06
5.84085e-06
6.17784e-06
6.52219e-06
6.86908e-06
7.21963e-06
7.57404e-06
7.93013e-06
8.28891e-06
8.64889e-06
9.00968e-06
9.37222e-06
9.73398e-06
1.00947e-05
1.04532e-05
1.08103e-05
1.11643e-05
1.15144e-05
1.18618e-05
1.22029e-05
1.25824e-05
1.29988e-05
1.33686e-05
1.3726e-05
1.40551e-05
1.43731e-05
1.46675e-05
1.49444e-05
1.52016e-05
1.54319e-05
1.56442e-05
1.58229e-05
1.59857e-05
1.59981e-05
1.59489e-05
1.6019e-05
1.61426e-05
1.62414e-05
1.63252e-05
1.63864e-05
1.64268e-05
1.64496e-05
1.64434e-05
1.64314e-05
1.63989e-05
1.63632e-05
1.62508e-05
1.61385e-05
1.59808e-05
1.58145e-05
1.56127e-05
1.53901e-05
1.51435e-05
1.48624e-05
1.4571e-05
1.42295e-05
1.38879e-05
1.349e-05
1.30865e-05
1.26431e-05
1.21771e-05
1.16877e-05
1.116e-05
1.06234e-05
1.00362e-05
9.44904e-06
8.80845e-06
8.16621e-06
7.8266e-06
7.48117e-06
7.13573e-06
6.7903e-06
6.42744e-06
6.06128e-06
5.69511e-06
5.32377e-06
4.93912e-06
4.55448e-06
4.16747e-06
3.76318e-06
3.35889e-06
2.94339e-06
2.51362e-06
2.0742e-06
1.60994e-06
1.11813e-06
8.63471e-07
5.89666e-07
3.04237e-07
0
)


113
(
0
2.54759e-07
4.91714e-07
7.18754e-07
9.41692e-07
1.16334e-06
1.38567e-06
1.61072e-06
1.83848e-06
2.06883e-06
2.30425e-06
2.5429e-06
2.78409e-06
3.03095e-06
3.27996e-06
3.53207e-06
3.78791e-06
4.04536e-06
4.30611e-06
4.56856e-06
4.83251e-06
5.09864e-06
5.35694e-06
5.59226e-06
5.84482e-06
6.10706e-06
6.36826e-06
6.62866e-06
6.88791e-06
7.14489e-06
7.40051e-06
7.6532e-06
7.90306e-06
8.15102e-06
8.3936e-06
8.63343e-06
8.86964e-06
9.09969e-06
9.32646e-06
9.54728e-06
9.7619e-06
9.97252e-06
1.01744e-05
1.03704e-05
1.0561e-05
1.07409e-05
1.09171e-05
1.10807e-05
1.12392e-05
1.13869e-05
1.15264e-05
1.16566e-05
1.17753e-05
1.18864e-05
1.19834e-05
1.20736e-05
1.21477e-05
1.22151e-05
1.22655e-05
1.23082e-05
1.23345e-05
1.23505e-05
1.23518e-05
1.23393e-05
1.23154e-05
1.22726e-05
1.22228e-05
1.2148e-05
1.20718e-05
1.19634e-05
1.1855e-05
1.17171e-05
1.15736e-05
1.14072e-05
1.12274e-05
1.10321e-05
1.08147e-05
1.05967e-05
1.03759e-05
1.01552e-05
9.85948e-06
9.55635e-06
9.22899e-06
8.88801e-06
8.53277e-06
8.15429e-06
7.7703e-06
7.35517e-06
6.94004e-06
6.49043e-06
6.03975e-06
5.80115e-06
5.55836e-06
5.31557e-06
5.07278e-06
4.81497e-06
4.5543e-06
4.29363e-06
4.02743e-06
3.74703e-06
3.46663e-06
3.18345e-06
2.87986e-06
2.57627e-06
2.26059e-06
1.92953e-06
1.58987e-06
1.22814e-06
8.46343e-07
6.49249e-07
4.40318e-07
2.25005e-07
0
)


113
(
0
2.71798e-07
5.26807e-07
7.68306e-07
1.00031e-06
1.22488e-06
1.44303e-06
1.65566e-06
1.86503e-06
2.07173e-06
2.27474e-06
2.47594e-06
2.6757e-06
2.87267e-06
3.06858e-06
3.26299e-06
3.45537e-06
3.6468e-06
3.83604e-06
4.02377e-06
4.21018e-06
4.39378e-06
4.57617e-06
4.75601e-06
4.93342e-06
5.10938e-06
5.28123e-06
5.45121e-06
5.61848e-06
5.78176e-06
5.94292e-06
6.09982e-06
6.25318e-06
6.40415e-06
6.54902e-06
6.69105e-06
6.82931e-06
6.96162e-06
7.09087e-06
7.2147e-06
7.33316e-06
7.44822e-06
7.55599e-06
7.6592e-06
7.75803e-06
7.84869e-06
7.93664e-06
8.01523e-06
8.09018e-06
8.15739e-06
8.21891e-06
8.27401e-06
8.32139e-06
8.36362e-06
8.39653e-06
8.42504e-06
8.44319e-06
8.4571e-06
8.46032e-06
8.45872e-06
8.44699e-06
8.42906e-06
8.40221e-06
8.36713e-06
8.32525e-06
8.27228e-06
8.21524e-06
8.14375e-06
8.07149e-06
7.98086e-06
7.89023e-06
7.78309e-06
7.6728e-06
7.54984e-06
7.41944e-06
7.28061e-06
7.12963e-06
6.97508e-06
6.80302e-06
6.63096e-06
6.43924e-06
6.24557e-06
6.03775e-06
5.82196e-06
5.59753e-06
5.35901e-06
5.11694e-06
4.85477e-06
4.59259e-06
4.30614e-06
4.01893e-06
3.86505e-06
3.70792e-06
3.5508e-06
3.39367e-06
3.22405e-06
3.05205e-06
2.88006e-06
2.70343e-06
2.51491e-06
2.32639e-06
2.13568e-06
1.92897e-06
1.72227e-06
1.50714e-06
1.28129e-06
1.05022e-06
8.05724e-07
5.50504e-07
4.19634e-07
2.83054e-07
1.43617e-07
0
)


113
(
0
1.94895e-07
3.80818e-07
5.58212e-07
7.28562e-07
8.92591e-07
1.05032e-06
1.20157e-06
1.34837e-06
1.49133e-06
1.62812e-06
1.76139e-06
1.89191e-06
2.01652e-06
2.13886e-06
2.25791e-06
2.37274e-06
2.48565e-06
2.59437e-06
2.70052e-06
2.80439e-06
2.90404e-06
3.00203e-06
3.09665e-06
3.18841e-06
3.27847e-06
3.36422e-06
3.44817e-06
3.52954e-06
3.60742e-06
3.68352e-06
3.75619e-06
3.82617e-06
3.89436e-06
3.95822e-06
4.02016e-06
4.07957e-06
4.13515e-06
4.18883e-06
4.23918e-06
4.28635e-06
4.33152e-06
4.37252e-06
4.41101e-06
4.44706e-06
4.47872e-06
4.50894e-06
4.53427e-06
4.55773e-06
4.57726e-06
4.59395e-06
4.60745e-06
4.61719e-06
4.62442e-06
4.6272e-06
4.62789e-06
4.62371e-06
4.61755e-06
4.60645e-06
4.59313e-06
4.5752e-06
4.55444e-06
4.52965e-06
4.50116e-06
4.46961e-06
4.4331e-06
4.39476e-06
4.34996e-06
4.30481e-06
4.25141e-06
4.19802e-06
4.13714e-06
4.07484e-06
4.00671e-06
3.93515e-06
3.85961e-06
3.77835e-06
3.69536e-06
3.60385e-06
3.51234e-06
3.41089e-06
3.30847e-06
3.19857e-06
3.08446e-06
2.96559e-06
2.83894e-06
2.71025e-06
2.57005e-06
2.42985e-06
2.27545e-06
2.12062e-06
2.03724e-06
1.95198e-06
1.86672e-06
1.78145e-06
1.68925e-06
1.59572e-06
1.50218e-06
1.40627e-06
1.30422e-06
1.20217e-06
1.0991e-06
9.88584e-07
8.78064e-07
7.64042e-07
6.45562e-07
5.25141e-07
3.99728e-07
2.70693e-07
2.05088e-07
1.37695e-07
6.94524e-08
0
)


113
(
0
2.0568e-08
4.06512e-08
6.02252e-08
7.93374e-08
9.80017e-08
1.16185e-07
1.33822e-07
1.51055e-07
1.6793e-07
1.84181e-07
2.00048e-07
2.15613e-07
2.30483e-07
2.45068e-07
2.59242e-07
2.72859e-07
2.86219e-07
2.99004e-07
3.11426e-07
3.23525e-07
3.35015e-07
3.46263e-07
3.57017e-07
3.6735e-07
3.77433e-07
3.86879e-07
3.96062e-07
4.04867e-07
4.13164e-07
4.21204e-07
4.28748e-07
4.35913e-07
4.42822e-07
4.49127e-07
4.55168e-07
4.60861e-07
4.66038e-07
4.70961e-07
4.75442e-07
4.79509e-07
4.83317e-07
4.86592e-07
4.8955e-07
4.92204e-07
4.94316e-07
4.96251e-07
4.97594e-07
4.98716e-07
4.99369e-07
4.99692e-07
4.9964e-07
4.99157e-07
4.98387e-07
4.97114e-07
4.95603e-07
4.93552e-07
4.9128e-07
4.88466e-07
4.8541e-07
4.81855e-07
4.77994e-07
4.73704e-07
4.6902e-07
4.64015e-07
4.58488e-07
4.52772e-07
4.46387e-07
4.39967e-07
4.32707e-07
4.25446e-07
4.17437e-07
4.09284e-07
4.0056e-07
3.915e-07
3.82059e-07
3.72071e-07
3.61922e-07
3.50984e-07
3.40045e-07
3.28221e-07
3.16309e-07
3.03762e-07
2.90859e-07
2.77574e-07
2.63668e-07
2.49611e-07
2.34701e-07
2.1979e-07
2.03915e-07
1.8801e-07
1.79692e-07
1.71258e-07
1.62824e-07
1.54391e-07
1.45576e-07
1.36688e-07
1.278e-07
1.18796e-07
1.09492e-07
1.00189e-07
9.08407e-08
8.11689e-08
7.14971e-08
6.1689e-08
5.17072e-08
4.16568e-08
3.14298e-08
2.10842e-08
1.58761e-08
1.06127e-08
5.32402e-09
0
)

)


10
(

113
(
0
5.16891e-15
1.01492e-14
1.51444e-14
2.03433e-14
2.59582e-14
3.22691e-14
3.96803e-14
4.88663e-14
6.10637e-14
7.85594e-14
1.05436e-13
1.48648e-13
2.19341e-13
3.34213e-13
5.26628e-13
8.58461e-13
1.38233e-12
2.17411e-12
3.32239e-12
4.92796e-12
7.10478e-12
9.98833e-12
1.39201e-11
1.90764e-11
2.60011e-11
3.58459e-11
5.14182e-11
8.00169e-11
1.41026e-10
2.85754e-10
6.48276e-10
1.57472e-09
3.93222e-09
9.88585e-09
2.52138e-08
6.33388e-08
1.53663e-07
3.54684e-07
7.62514e-07
1.49981e-06
2.68311e-06
4.32642e-06
6.3432e-06
8.58961e-06
1.09183e-05
1.32043e-05
1.53663e-05
1.73408e-05
1.91086e-05
2.06723e-05
2.20321e-05
2.31961e-05
2.41728e-05
2.49713e-05
2.55511e-05
2.59597e-05
2.62214e-05
2.63495e-05
2.63147e-05
2.61577e-05
2.59152e-05
2.55835e-05
2.51594e-05
2.46937e-05
2.4181e-05
2.36239e-05
2.30499e-05
2.24508e-05
2.18385e-05
2.12183e-05
2.05864e-05
1.99518e-05
1.93109e-05
1.86671e-05
1.80204e-05
1.73701e-05
1.67183e-05
1.60614e-05
1.54036e-05
1.47407e-05
1.40761e-05
1.34057e-05
1.27319e-05
1.20529e-05
1.13677e-05
1.06775e-05
9.97825e-06
9.27592e-06
8.55996e-06
7.83943e-06
7.47384e-06
7.10824e-06
6.73976e-06
6.36607e-06
5.99237e-06
5.61587e-06
5.23356e-06
4.85126e-06
4.46419e-06
4.07306e-06
3.68163e-06
3.2825e-06
2.88337e-06
2.478e-06
2.0715e-06
1.65903e-06
1.24452e-06
8.27714e-07
6.18981e-07
4.09852e-07
2.02714e-07
0
)


113
(
0
5.15529e-15
1.04387e-14
1.62009e-14
2.30281e-14
3.20166e-14
4.51747e-14
6.63731e-14
1.02398e-13
1.64582e-13
2.7462e-13
4.76026e-13
8.66574e-13
1.66589e-12
3.33164e-12
7.09647e-12
1.69462e-11
4.0485e-11
9.43663e-11
2.11691e-10
4.54608e-10
9.33837e-10
1.84176e-09
3.75106e-09
7.30578e-09
1.36461e-08
2.45339e-08
4.2591e-08
7.16471e-08
1.16958e-07
1.85401e-07
2.85874e-07
4.29432e-07
6.28908e-07
8.98813e-07
1.25694e-06
1.7168e-06
2.291e-06
2.99007e-06
3.82054e-06
4.78433e-06
5.88035e-06
7.09727e-06
8.41571e-06
9.81368e-06
1.12666e-05
1.27464e-05
1.42249e-05
1.56732e-05
1.706e-05
1.8365e-05
1.95683e-05
2.06577e-05
2.16254e-05
2.24677e-05
2.31442e-05
2.36833e-05
2.41007e-05
2.4404e-05
2.45617e-05
2.46034e-05
2.45598e-05
2.44233e-05
2.41802e-05
2.38833e-05
2.35234e-05
2.30935e-05
2.26336e-05
2.21257e-05
2.15869e-05
2.10302e-05
2.04395e-05
1.98412e-05
1.92245e-05
1.85991e-05
1.79652e-05
1.73225e-05
1.66764e-05
1.60218e-05
1.53657e-05
1.47018e-05
1.40361e-05
1.3364e-05
1.26883e-05
1.20071e-05
1.13201e-05
1.06285e-05
9.92827e-06
9.22509e-06
8.509e-06
7.78862e-06
7.42342e-06
7.05821e-06
6.6903e-06
6.3175e-06
5.94469e-06
5.56933e-06
5.18867e-06
4.80801e-06
4.42315e-06
4.0347e-06
3.64597e-06
3.25031e-06
2.85464e-06
2.45383e-06
2.05209e-06
1.64615e-06
1.2366e-06
8.23908e-07
6.17771e-07
4.11699e-07
2.0856e-07
0
)


113
(
0
1.43116e-11
4.96913e-11
1.29697e-10
2.7995e-10
5.48663e-10
1.00934e-09
1.76912e-09
2.98964e-09
4.8762e-09
7.71487e-09
1.18311e-08
1.76508e-08
2.57611e-08
3.68754e-08
5.19932e-08
7.28195e-08
1.0007e-07
1.35187e-07
1.79798e-07
2.3573e-07
3.05028e-07
3.90057e-07
4.96575e-07
6.25075e-07
7.78378e-07
9.59013e-07
1.17012e-06
1.41445e-06
1.69465e-06
2.01404e-06
2.37466e-06
2.77888e-06
3.22755e-06
3.72282e-06
4.26446e-06
4.84987e-06
5.47916e-06
6.15071e-06
6.85863e-06
7.60323e-06
8.37905e-06
9.17944e-06
1.00014e-05
1.08355e-05
1.16778e-05
1.25192e-05
1.3353e-05
1.41741e-05
1.49726e-05
1.57437e-05
1.64798e-05
1.71759e-05
1.78279e-05
1.84328e-05
1.89707e-05
1.94482e-05
1.98688e-05
2.02334e-05
2.05205e-05
2.07379e-05
2.09004e-05
2.09998e-05
2.10162e-05
2.09858e-05
2.08981e-05
2.07355e-05
2.05374e-05
2.02776e-05
1.99695e-05
1.96333e-05
1.9231e-05
1.88112e-05
1.83466e-05
1.78562e-05
1.73404e-05
1.67933e-05
1.62341e-05
1.5643e-05
1.50465e-05
1.44235e-05
1.37951e-05
1.31489e-05
1.24953e-05
1.18298e-05
1.11552e-05
1.04733e-05
9.78015e-06
9.08324e-06
8.37389e-06
7.6611e-06
7.30071e-06
6.94032e-06
6.57732e-06
6.2096e-06
5.84188e-06
5.47113e-06
5.09412e-06
4.71711e-06
4.33467e-06
3.94762e-06
3.56055e-06
3.17299e-06
2.78544e-06
2.3937e-06
2.00121e-06
1.60554e-06
1.21028e-06
8.17298e-07
6.22507e-07
4.28956e-07
2.29786e-07
0
)


113
(
0
5.18471e-09
1.1936e-08
2.14143e-08
3.39036e-08
5.00247e-08
7.04926e-08
9.60611e-08
1.27508e-07
1.65622e-07
2.11201e-07
2.65059e-07
3.28086e-07
4.01359e-07
4.85934e-07
5.82815e-07
6.94351e-07
8.19787e-07
9.5907e-07
1.11444e-06
1.28692e-06
1.47535e-06
1.68307e-06
1.91081e-06
2.15899e-06
2.4266e-06
2.71411e-06
3.0215e-06
3.34956e-06
3.69844e-06
4.06619e-06
4.45337e-06
4.86006e-06
5.28507e-06
5.72646e-06
6.18554e-06
6.65882e-06
7.14512e-06
7.64112e-06
8.14628e-06
8.66127e-06
9.1784e-06
9.70075e-06
1.02228e-05
1.07448e-05
1.12611e-05
1.17722e-05
1.22747e-05
1.27635e-05
1.32393e-05
1.36994e-05
1.41407e-05
1.45617e-05
1.49608e-05
1.53362e-05
1.56791e-05
1.59925e-05
1.62783e-05
1.65366e-05
1.6756e-05
1.69389e-05
1.70926e-05
1.72121e-05
1.72839e-05
1.73277e-05
1.73368e-05
1.72972e-05
1.72331e-05
1.71252e-05
1.69798e-05
1.68127e-05
1.65885e-05
1.63476e-05
1.60633e-05
1.57511e-05
1.54113e-05
1.50322e-05
1.46379e-05
1.42019e-05
1.37579e-05
1.32685e-05
1.27704e-05
1.22433e-05
1.16997e-05
1.11298e-05
1.0537e-05
9.92569e-06
9.28695e-06
8.63906e-06
7.98004e-06
7.31435e-06
6.9736e-06
6.63285e-06
6.28865e-06
5.93819e-06
5.58773e-06
5.23455e-06
4.87576e-06
4.51697e-06
4.15455e-06
3.78902e-06
3.42333e-06
3.05346e-06
2.68358e-06
2.31286e-06
1.94202e-06
1.57294e-06
1.2041e-06
8.3297e-07
6.44859e-07
4.47986e-07
2.37926e-07
0
)


113
(
0
4.58524e-08
9.26357e-08
1.45407e-07
2.05192e-07
2.72975e-07
3.49456e-07
4.35078e-07
5.30131e-07
6.34822e-07
7.49319e-07
8.73781e-07
1.00835e-06
1.15316e-06
1.30836e-06
1.47482e-06
1.65329e-06
1.84249e-06
2.04239e-06
2.253e-06
2.47427e-06
2.70611e-06
2.94844e-06
3.20257e-06
3.46914e-06
3.7502e-06
4.0405e-06
4.33764e-06
4.64171e-06
4.95259e-06
5.26978e-06
5.59255e-06
5.92119e-06
6.25436e-06
6.59103e-06
6.92965e-06
7.27408e-06
7.62062e-06
7.96257e-06
8.30785e-06
8.65253e-06
8.99689e-06
9.33418e-06
9.66913e-06
9.99851e-06
1.03229e-05
1.06398e-05
1.09486e-05
1.12475e-05
1.15354e-05
1.18131e-05
1.20789e-05
1.23319e-05
1.2571e-05
1.27956e-05
1.3001e-05
1.31907e-05
1.33642e-05
1.35211e-05
1.36549e-05
1.37693e-05
1.38667e-05
1.3943e-05
1.39906e-05
1.40224e-05
1.40349e-05
1.40128e-05
1.39754e-05
1.39129e-05
1.38228e-05
1.37167e-05
1.35697e-05
1.34076e-05
1.32051e-05
1.29796e-05
1.27314e-05
1.24565e-05
1.21713e-05
1.18555e-05
1.15334e-05
1.11722e-05
1.08015e-05
1.03991e-05
9.98143e-06
9.53942e-06
9.07656e-06
8.59691e-06
8.09086e-06
7.57599e-06
7.02904e-06
6.47327e-06
6.18515e-06
5.89703e-06
5.6045e-06
5.30398e-06
5.00346e-06
4.69975e-06
4.38945e-06
4.07915e-06
3.76515e-06
3.44799e-06
3.13066e-06
2.80905e-06
2.48744e-06
2.16242e-06
1.83675e-06
1.5043e-06
1.16521e-06
8.12594e-07
6.29453e-07
4.34187e-07
2.26763e-07
0
)


113
(
0
1.195e-07
2.319e-07
3.449e-07
4.61643e-07
5.83863e-07
7.12604e-07
8.48367e-07
9.91287e-07
1.14129e-06
1.29818e-06
1.46175e-06
1.63176e-06
1.80798e-06
1.99018e-06
2.17853e-06
2.37306e-06
2.57281e-06
2.77754e-06
2.98699e-06
3.20094e-06
3.41912e-06
3.64128e-06
3.86763e-06
4.09722e-06
4.32973e-06
4.56486e-06
4.80226e-06
5.04158e-06
5.28246e-06
5.52452e-06
5.76737e-06
6.01061e-06
6.25382e-06
6.49636e-06
6.73858e-06
6.97948e-06
7.21866e-06
7.45567e-06
7.69012e-06
7.92158e-06
8.14952e-06
8.37358e-06
8.60469e-06
8.90194e-06
9.14658e-06
9.37406e-06
9.59093e-06
9.7902e-06
9.97787e-06
1.01511e-05
1.0309e-05
1.04517e-05
1.05796e-05
1.06929e-05
1.07808e-05
1.08446e-05
1.08296e-05
1.07543e-05
1.08193e-05
1.08707e-05
1.09112e-05
1.09387e-05
1.09481e-05
1.09465e-05
1.09314e-05
1.09189e-05
1.08927e-05
1.08262e-05
1.07436e-05
1.06517e-05
1.05339e-05
1.0408e-05
1.02612e-05
1.00997e-05
9.92366e-06
9.72589e-06
9.5197e-06
9.28541e-06
9.04591e-06
8.77741e-06
8.50163e-06
8.20161e-06
7.88955e-06
7.55834e-06
7.21032e-06
6.84877e-06
6.46558e-06
6.07518e-06
5.65833e-06
5.23422e-06
5.01373e-06
4.79324e-06
4.56905e-06
4.33814e-06
4.10724e-06
3.87338e-06
3.63339e-06
3.39341e-06
3.14883e-06
2.90034e-06
2.6515e-06
2.39377e-06
2.13605e-06
1.86847e-06
1.59905e-06
1.31459e-06
1.02037e-06
7.09284e-07
5.46623e-07
3.73895e-07
1.92765e-07
0
)


113
(
0
1.77926e-07
3.42757e-07
5.00471e-07
6.55122e-07
8.08712e-07
9.62648e-07
1.11788e-06
1.27499e-06
1.43428e-06
1.59589e-06
1.75982e-06
1.92603e-06
2.09442e-06
2.26487e-06
2.43736e-06
2.61176e-06
2.78765e-06
2.96486e-06
3.1432e-06
3.32248e-06
3.50253e-06
3.68314e-06
3.83016e-06
4.00273e-06
4.17893e-06
4.35438e-06
4.52886e-06
4.70214e-06
4.87398e-06
5.04414e-06
5.2124e-06
5.3785e-06
5.54221e-06
5.70328e-06
5.86142e-06
6.01643e-06
6.16811e-06
6.31623e-06
6.46056e-06
6.60087e-06
6.73679e-06
6.86814e-06
6.99476e-06
7.11642e-06
7.23292e-06
7.34405e-06
7.44962e-06
7.54898e-06
7.64196e-06
7.72866e-06
7.80883e-06
7.88237e-06
7.94922e-06
8.00936e-06
8.06062e-06
8.10417e-06
8.14054e-06
8.16987e-06
8.18943e-06
8.20006e-06
8.2035e-06
8.19854e-06
8.18183e-06
8.1581e-06
8.1256e-06
8.08049e-06
8.02893e-06
7.96567e-06
7.89187e-06
7.81198e-06
7.71526e-06
7.6133e-06
7.49771e-06
7.37258e-06
7.23806e-06
7.08944e-06
6.93536e-06
6.79057e-06
6.64247e-06
6.44273e-06
6.23851e-06
6.01935e-06
5.79273e-06
5.55427e-06
5.30532e-06
5.04793e-06
4.77675e-06
4.50099e-06
4.20762e-06
3.909e-06
3.75356e-06
3.59812e-06
3.43957e-06
3.27541e-06
3.11125e-06
2.9441e-06
2.77076e-06
2.59742e-06
2.41859e-06
2.23507e-06
2.05111e-06
1.85589e-06
1.66068e-06
1.45395e-06
1.24511e-06
1.02132e-06
7.89417e-07
5.44414e-07
4.1689e-07
2.83088e-07
1.44568e-07
0
)


113
(
0
1.85107e-07
3.58338e-07
5.2219e-07
6.79487e-07
8.31445e-07
9.7906e-07
1.12319e-06
1.26451e-06
1.40355e-06
1.54068e-06
1.67618e-06
1.81025e-06
1.94302e-06
2.07458e-06
2.2049e-06
2.33393e-06
2.46181e-06
2.58851e-06
2.71397e-06
2.83815e-06
2.96097e-06
3.08235e-06
3.20195e-06
3.31992e-06
3.43616e-06
3.55056e-06
3.66303e-06
3.77345e-06
3.88171e-06
3.9877e-06
4.09132e-06
4.19243e-06
4.29094e-06
4.38673e-06
4.47961e-06
4.56956e-06
4.65647e-06
4.74026e-06
4.82082e-06
4.89804e-06
4.97172e-06
5.04181e-06
5.10825e-06
5.17097e-06
5.22987e-06
5.28486e-06
5.33589e-06
5.38256e-06
5.42484e-06
5.46284e-06
5.49646e-06
5.5257e-06
5.55055e-06
5.57106e-06
5.58588e-06
5.59584e-06
5.6013e-06
5.6024e-06
5.59748e-06
5.58714e-06
5.57247e-06
5.55275e-06
5.52607e-06
5.49527e-06
5.45932e-06
5.41607e-06
5.36911e-06
5.31544e-06
5.25579e-06
5.19269e-06
5.12014e-06
5.04467e-06
4.96161e-06
4.87328e-06
4.77976e-06
4.67847e-06
4.57418e-06
4.45987e-06
4.3437e-06
4.21713e-06
4.08792e-06
3.94988e-06
3.80733e-06
3.65761e-06
3.50127e-06
3.33959e-06
3.16867e-06
2.99467e-06
2.80792e-06
2.61704e-06
2.51678e-06
2.41653e-06
2.31365e-06
2.20605e-06
2.09844e-06
1.98822e-06
1.8726e-06
1.75699e-06
1.63666e-06
1.51231e-06
1.3876e-06
1.25385e-06
1.1201e-06
9.7797e-07
8.34307e-07
6.8093e-07
5.22833e-07
3.57423e-07
2.72084e-07
1.83697e-07
9.31618e-08
0
)


113
(
0
1.30191e-07
2.54219e-07
3.72468e-07
4.86004e-07
5.95116e-07
7.00076e-07
8.012e-07
8.98796e-07
9.93149e-07
1.08451e-06
1.17307e-06
1.25902e-06
1.34249e-06
1.42361e-06
1.50231e-06
1.5786e-06
1.65281e-06
1.725e-06
1.79522e-06
1.86352e-06
1.92991e-06
1.99442e-06
2.05678e-06
2.11733e-06
2.17607e-06
2.233e-06
2.28812e-06
2.34144e-06
2.39294e-06
2.44261e-06
2.49046e-06
2.53647e-06
2.58063e-06
2.62292e-06
2.66329e-06
2.70177e-06
2.73836e-06
2.77305e-06
2.80581e-06
2.83665e-06
2.86546e-06
2.89228e-06
2.9171e-06
2.93993e-06
2.96073e-06
2.9795e-06
2.99624e-06
3.01076e-06
3.0231e-06
3.03332e-06
3.04141e-06
3.04738e-06
3.05126e-06
3.05307e-06
3.05221e-06
3.04909e-06
3.04389e-06
3.03669e-06
3.02674e-06
3.01433e-06
2.99996e-06
2.98332e-06
2.96355e-06
2.94194e-06
2.91803e-06
2.89085e-06
2.86201e-06
2.83016e-06
2.79563e-06
2.75953e-06
2.71915e-06
2.67742e-06
2.6322e-06
2.58451e-06
2.53439e-06
2.48055e-06
2.42527e-06
2.36506e-06
2.30391e-06
2.23746e-06
2.16961e-06
2.0971e-06
2.02212e-06
1.94319e-06
1.86048e-06
1.77475e-06
1.68359e-06
1.59062e-06
1.49006e-06
1.38705e-06
1.33268e-06
1.27831e-06
1.22243e-06
1.16381e-06
1.10519e-06
1.04513e-06
9.82098e-07
9.19067e-07
8.53617e-07
7.86105e-07
7.18425e-07
6.46484e-07
5.74543e-07
4.99008e-07
4.22818e-07
3.4283e-07
2.61147e-07
1.76913e-07
1.33919e-07
8.99654e-08
4.53655e-08
0
)


113
(
0
1.35276e-08
2.67309e-08
3.95968e-08
5.21614e-08
6.44188e-08
7.63641e-08
8.79977e-08
9.93234e-08
1.10347e-07
1.21073e-07
1.31508e-07
1.41656e-07
1.51521e-07
1.61107e-07
1.70396e-07
1.79374e-07
1.8808e-07
1.96515e-07
2.04681e-07
2.12579e-07
2.2021e-07
2.27574e-07
2.34631e-07
2.41427e-07
2.47963e-07
2.54237e-07
2.60253e-07
2.66009e-07
2.71506e-07
2.76745e-07
2.81727e-07
2.86451e-07
2.90919e-07
2.95132e-07
2.99083e-07
3.0278e-07
3.06226e-07
3.09421e-07
3.12367e-07
3.15063e-07
3.17502e-07
3.1969e-07
3.21628e-07
3.2332e-07
3.24765e-07
3.25965e-07
3.2692e-07
3.27613e-07
3.28049e-07
3.28239e-07
3.28183e-07
3.27885e-07
3.27348e-07
3.26579e-07
3.25511e-07
3.24192e-07
3.22644e-07
3.20876e-07
3.18809e-07
3.16477e-07
3.13935e-07
3.11149e-07
3.08031e-07
3.04719e-07
3.01166e-07
2.97272e-07
2.93206e-07
2.8883e-07
2.8418e-07
2.79371e-07
2.7413e-07
2.68755e-07
2.63035e-07
2.57073e-07
2.50874e-07
2.44319e-07
2.37628e-07
2.30476e-07
2.23239e-07
2.15523e-07
2.07686e-07
1.99443e-07
1.90994e-07
1.82218e-07
1.73145e-07
1.63832e-07
1.54119e-07
1.44272e-07
1.33902e-07
1.23377e-07
1.17933e-07
1.12488e-07
1.06956e-07
1.01265e-07
9.55735e-08
8.9806e-08
8.38813e-08
7.79565e-08
7.19154e-08
6.57752e-08
5.96275e-08
5.32934e-08
4.69593e-08
4.04814e-08
3.39774e-08
2.73332e-08
2.06307e-08
1.38421e-08
1.04194e-08
6.96679e-09
3.49468e-09
0
)

)


10
(

113
(
0
1.49988e-14
2.93231e-14
4.33737e-14
5.74471e-14
7.22065e-14
8.8256e-14
1.06198e-13
1.29081e-13
1.58043e-13
1.99877e-13
2.615e-13
3.5225e-13
4.87077e-13
6.87846e-13
1.02267e-12
1.535e-12
2.26615e-12
3.2475e-12
4.8225e-12
7.10538e-12
1.0625e-11
1.62667e-11
2.51385e-11
3.88308e-11
6.84e-11
1.26333e-10
2.41833e-10
4.6925e-10
9.01833e-10
1.80017e-09
3.98455e-09
8.48333e-09
1.745e-08
3.59636e-08
7.55091e-08
1.53909e-07
3.01455e-07
5.66e-07
1.03327e-06
1.75091e-06
2.828e-06
4.11455e-06
5.679e-06
7.33818e-06
8.99818e-06
1.05891e-05
1.20333e-05
1.33e-05
1.43e-05
1.50692e-05
1.57083e-05
1.61923e-05
1.65286e-05
1.66714e-05
1.67e-05
1.66714e-05
1.66e-05
1.64e-05
1.62063e-05
1.60187e-05
1.57187e-05
1.53875e-05
1.50125e-05
1.46941e-05
1.44e-05
1.40111e-05
1.36333e-05
1.33e-05
1.29444e-05
1.25556e-05
1.21789e-05
1.18105e-05
1.14421e-05
1.10737e-05
1.068e-05
1.028e-05
9.9e-06
9.525e-06
9.142e-06
8.757e-06
8.368e-06
7.978e-06
7.56737e-06
7.15158e-06
6.7545e-06
6.3595e-06
5.93e-06
5.49722e-06
5.06944e-06
4.63941e-06
4.42176e-06
4.20412e-06
3.98625e-06
3.7675e-06
3.54875e-06
3.33e-06
3.11e-06
2.89e-06
2.67e-06
2.42417e-06
2.17833e-06
1.93818e-06
1.70182e-06
1.46222e-06
1.21778e-06
9.68714e-07
7.23e-07
5.03e-07
3.84875e-07
2.505e-07
1.27e-07
0
)


113
(
0
1.48168e-14
2.9633e-14
4.50629e-14
6.23187e-14
8.34294e-14
1.12209e-13
1.55314e-13
2.25191e-13
3.47515e-13
5.73254e-13
1.02065e-12
1.90816e-12
3.68991e-12
7.86621e-12
1.76933e-11
3.96299e-11
8.69948e-11
1.72776e-10
3.57298e-10
7.6883e-10
1.53227e-09
2.93124e-09
5.3813e-09
9.52941e-09
1.72022e-08
2.99227e-08
5.00075e-08
8.0542e-08
1.25463e-07
1.93159e-07
2.9153e-07
4.30088e-07
6.14848e-07
8.54033e-07
1.16258e-06
1.54736e-06
2.01616e-06
2.57385e-06
3.23236e-06
3.9785e-06
4.80061e-06
5.69401e-06
6.63653e-06
7.61388e-06
8.60158e-06
9.57933e-06
1.05255e-05
1.14252e-05
1.22605e-05
1.29921e-05
1.36412e-05
1.41922e-05
1.46537e-05
1.50066e-05
1.52534e-05
1.54254e-05
1.5525e-05
1.55167e-05
1.54608e-05
1.53571e-05
1.51836e-05
1.49846e-05
1.47442e-05
1.44728e-05
1.41881e-05
1.38702e-05
1.35477e-05
1.32074e-05
1.28608e-05
1.25047e-05
1.21425e-05
1.1776e-05
1.14044e-05
1.10305e-05
1.06522e-05
1.02727e-05
9.88907e-06
9.50437e-06
9.11548e-06
8.72554e-06
8.33081e-06
7.93487e-06
7.53344e-06
7.13062e-06
6.72089e-06
6.31039e-06
5.89267e-06
5.4734e-06
5.04739e-06
4.61902e-06
4.40207e-06
4.18512e-06
3.96726e-06
3.74579e-06
3.52431e-06
3.30283e-06
3.07607e-06
2.84931e-06
2.62255e-06
2.39054e-06
2.15854e-06
1.92419e-06