/*--------------------------------*- C++ -*----------------------------------*\
| =========                 |                                                 |
| \\      /  F ield         | OpenFOAM: The Open Source CFD Toolbox           |
|  \\    /   O peration     | Version:  2.3.0                                 |
|   \\  /    A nd           | Web:      www.OpenFOAM.org                      |
|    \\/     M anipulation  |                                                 |
\*---------------------------------------------------------------------------*/
FoamFile
{
    version     2.0;
    format      ascii;
    class       dictionary;
    location    "constant";
    object      NNH;
}
// * * * * * * * * * * * * * * * * * * * * * * * * * * * * * * * * * * * * * //

NNH_table
13
(

10
(

113
(
0
9.21125e-22
8.05e-20
1.7195e-18
1.61811e-17
9.00405e-17
3.62977e-16
1.78127e-15
6.28476e-15
1.49238e-14
4.24073e-14
1.05654e-13
1.97e-13
4.74358e-13
9.64472e-13
1.76075e-12
3.65742e-12
6.4178e-12
1.2052e-11
2.19834e-11
3.57258e-11
6.46488e-11
1.03622e-10
1.664e-10
2.62086e-10
3.77689e-10
5.62161e-10
7.77702e-10
1.03795e-09
1.35667e-09
1.69219e-09
2.03594e-09
2.35031e-09
2.64327e-09
2.80679e-09
2.89456e-09
2.8819e-09
2.71861e-09
2.49968e-09
2.20222e-09
1.87707e-09
1.54348e-09
1.23913e-09
9.80671e-10
7.66299e-10
6.22266e-10
4.97397e-10
4.19184e-10
3.50259e-10
3.0107e-10
2.59417e-10
2.26262e-10
1.98312e-10
1.73833e-10
1.53919e-10
1.36152e-10
1.2151e-10
1.08144e-10
9.75667e-11
8.8243e-11
8.0419e-11
7.35143e-11
6.75271e-11
6.23869e-11
5.75815e-11
5.33222e-11
4.91523e-11
4.52991e-11
4.144e-11
3.744e-11
3.344e-11
2.92271e-11
2.49738e-11
2.07608e-11
1.65716e-11
1.27895e-11
9.59304e-12
6.63009e-12
4.80708e-12
2.98407e-12
2.09e-12
1.28779e-12
8.05301e-13
5.02646e-13
2.75705e-13
1.72297e-13
7.98106e-14
4.92142e-14
1.86179e-14
1.05341e-14
3.14651e-15
1.85421e-15
1.32029e-15
7.86357e-16
2.52429e-16
1.29729e-16
8.53578e-17
4.0987e-17
8.27709e-18
5.55241e-18
2.82772e-18
4.11575e-19
2.5803e-19
1.04485e-19
1.48851e-20
6.66933e-21
6.29573e-22
1.8519e-22
1.5125e-23
1.7988e-24
5.338e-25
3.26667e-26
0
)


113
(
0
4.37751e-17
3.67259e-16
1.90347e-15
6.99261e-15
2.0403e-14
5.28185e-14
1.43727e-13
3.36556e-13
6.5064e-13
1.41439e-12
2.80806e-12
4.69666e-12
9.0172e-12
1.52781e-11
2.43313e-11
4.01363e-11
5.9949e-11
9.10882e-11
1.32648e-10
1.8345e-10
2.57281e-10
3.41334e-10
4.47196e-10
5.71865e-10
7.07596e-10
8.67003e-10
1.0317e-09
1.204e-09
1.37402e-09
1.53895e-09
1.68691e-09
1.8115e-09
1.92014e-09
1.97832e-09
2.01207e-09
2.01342e-09
1.96824e-09
1.90251e-09
1.80347e-09
1.68232e-09
1.54939e-09
1.40288e-09
1.25581e-09
1.10821e-09
9.70691e-10
8.37276e-10
7.21585e-10
6.1369e-10
5.22361e-10
4.42046e-10
3.74152e-10
3.17869e-10
2.69327e-10
2.3096e-10
1.97381e-10
1.71334e-10
1.48364e-10
1.30375e-10
1.14624e-10
1.01799e-10
9.07673e-11
8.12608e-11
7.31621e-11
6.57653e-11
5.95136e-11
5.35128e-11
4.84012e-11
4.33185e-11
3.89262e-11
3.45339e-11
3.05789e-11
2.67071e-11
2.31525e-11
1.97841e-11
1.66569e-11
1.38769e-11
1.12111e-11
9.10289e-12
6.99465e-12
5.50403e-12
4.0745e-12
3.01647e-12
2.16743e-12
1.47369e-12
1.03336e-12
6.29515e-13
4.32429e-13
2.35343e-13
1.55271e-13
7.8817e-14
5.97082e-14
4.66367e-14
3.35651e-14
2.04936e-14
1.50807e-14
1.11265e-14
7.17224e-15
4.0218e-15
2.9382e-15
1.8546e-15
8.68425e-16
5.96715e-16
3.25005e-16
1.44272e-16
7.93289e-17
2.80612e-17
1.19589e-17
3.55536e-18
1.45221e-18
6.79019e-19
1.98619e-19
0
)


113
(
0
3.44857e-13
1.03033e-12
2.28915e-12
4.3029e-12
7.30334e-12
1.17252e-11
1.82495e-11
2.68302e-11
3.7376e-11
5.19981e-11
6.98983e-11
9.03741e-11
1.18315e-10
1.49364e-10
1.84884e-10
2.27217e-10
2.72759e-10
3.25653e-10
3.82435e-10
4.42665e-10
5.08126e-10
5.75197e-10
6.45201e-10
7.16308e-10
7.88004e-10
8.58134e-10
9.26176e-10
9.91211e-10
1.05053e-09
1.1063e-09
1.15404e-09
1.19422e-09
1.2293e-09
1.25142e-09
1.26739e-09
1.27522e-09
1.2708e-09
1.26085e-09
1.24177e-09
1.21412e-09
1.18135e-09
1.13934e-09
1.09354e-09
1.04408e-09
9.90277e-10
9.35118e-10
8.75701e-10
8.1615e-10
7.56317e-10
6.9777e-10
6.40673e-10
5.85826e-10
5.3248e-10
4.82522e-10
4.34158e-10
3.90092e-10
3.47782e-10
3.10531e-10
2.75552e-10
2.44377e-10
2.15533e-10
1.89688e-10
1.66611e-10
1.45575e-10
1.27869e-10
1.11061e-10
9.74378e-11
8.39537e-11
7.37966e-11
6.36395e-11
5.56521e-11
4.8078e-11
4.16866e-11
3.59899e-11
3.08841e-11
2.66287e-11
2.25618e-11
1.94151e-11
1.62684e-11
1.38717e-11
1.15492e-11
9.63421e-12
7.94849e-12
6.451e-12
5.26061e-12
4.12651e-12
3.31136e-12
2.49622e-12
1.9547e-12
1.42165e-12
1.23096e-12
1.06422e-12
8.9748e-13
7.30741e-13
6.21342e-13
5.22866e-13
4.24389e-13
3.36895e-13
2.77644e-13
2.18394e-13
1.62233e-13
1.28732e-13
9.52321e-14
6.79431e-14
4.85594e-14
3.13425e-14
1.96975e-14
1.08015e-14
7.1469e-15
4.47396e-15
2.11705e-15
0
)


113
(
0
6.10246e-12
1.32186e-11
2.22117e-11
3.31022e-11
4.59173e-11
6.08793e-11
7.83725e-11
9.77829e-11
1.18898e-10
1.42984e-10
1.68839e-10
1.96084e-10
2.2686e-10
2.58623e-10
2.91806e-10
3.26194e-10
3.61221e-10
3.97902e-10
4.34636e-10
4.71418e-10
5.08042e-10
5.44651e-10
5.81267e-10
6.16452e-10
6.50774e-10
6.82194e-10
7.12458e-10
7.4106e-10
7.67032e-10
7.91338e-10
8.11852e-10
8.29982e-10
8.46486e-10
8.58031e-10
8.67359e-10
8.73748e-10
8.76277e-10
8.7667e-10
8.73134e-10
8.66913e-10
8.58883e-10
8.46441e-10
8.31972e-10
8.15558e-10
7.95797e-10
7.75085e-10
7.51832e-10
7.27537e-10
7.01026e-10
6.73928e-10
6.46169e-10
6.177e-10
5.88758e-10
5.58969e-10
5.28782e-10
4.99097e-10
4.69616e-10
4.41213e-10
4.13295e-10
3.85533e-10
3.57867e-10
3.31747e-10
3.07052e-10
2.82962e-10
2.59856e-10
2.37435e-10
2.17441e-10
1.97529e-10
1.79612e-10
1.61695e-10
1.46151e-10
1.31059e-10
1.17449e-10
1.04709e-10
9.28861e-11
8.23821e-11
7.22398e-11
6.38636e-11
5.54874e-11
4.86229e-11
4.1908e-11
3.61539e-11
3.09403e-11
2.62258e-11
2.23256e-11
1.85697e-11
1.56312e-11
1.26927e-11
1.05329e-11
8.39723e-12
7.55343e-12
6.78037e-12
6.00732e-12
5.23426e-12
4.64302e-12
4.08641e-12
3.5298e-12
3.01668e-12
2.61539e-12
2.2141e-12
1.82596e-12
1.53425e-12
1.24253e-12
9.84128e-13
7.68132e-13
5.6616e-13
4.00248e-13
2.53643e-13
1.85825e-13
1.23886e-13
6.26863e-14
0
)


113
(
0
1.4771e-11
2.88609e-11
4.36602e-11
5.94753e-11
7.63431e-11
9.43167e-11
1.13421e-10
1.33265e-10
1.53732e-10
1.75111e-10
1.96921e-10
2.19068e-10
2.41744e-10
2.64526e-10
2.87464e-10
3.10387e-10
3.33255e-10
3.55871e-10
3.78175e-10
4.00202e-10
4.21455e-10
4.42332e-10
4.62384e-10
4.82052e-10
5.01469e-10
5.19202e-10
5.36031e-10
5.5156e-10
5.65816e-10
5.79209e-10
5.90552e-10
6.01225e-10
6.11389e-10
6.17654e-10
6.23551e-10
6.28961e-10
6.31715e-10
6.3359e-10
6.34354e-10
6.3352e-10
6.31689e-10
6.27813e-10
6.23144e-10
6.17713e-10
6.10429e-10
6.02637e-10
5.93599e-10
5.8359e-10
5.71518e-10
5.59381e-10
5.4717e-10
5.33441e-10
5.18698e-10
5.03605e-10
4.88347e-10
4.72888e-10
4.57348e-10
4.40995e-10
4.24277e-10
4.07186e-10
3.89867e-10
3.72535e-10
3.55192e-10
3.38025e-10
3.21147e-10
3.0444e-10
2.88342e-10
2.72258e-10
2.56518e-10
2.40778e-10
2.25164e-10
2.09574e-10
1.95215e-10
1.8158e-10
1.68136e-10
1.54966e-10
1.42076e-10
1.30553e-10
1.19031e-10
1.08653e-10
9.83878e-11
8.893e-11
7.99263e-11
7.13878e-11
6.36085e-11
5.60023e-11
4.93775e-11
4.27527e-11
3.71518e-11
3.15826e-11
2.91532e-11
2.6836e-11
2.45188e-11
2.22016e-11
2.02213e-11
1.83052e-11
1.63892e-11
1.45669e-11
1.2986e-11
1.1405e-11
9.85639e-12
8.5449e-12
7.23342e-12
6.00981e-12
4.89805e-12
3.82157e-12
2.83579e-12
1.88691e-12
1.42212e-12
9.59105e-13
4.8879e-13
0
)


113
(
0
1.80798e-11
3.43655e-11
4.99427e-11
6.53582e-11
8.08085e-11
9.63964e-11
1.12166e-10
1.28042e-10
1.44e-10
1.6002e-10
1.76006e-10
1.91966e-10
2.07732e-10
2.23366e-10
2.38808e-10
2.53893e-10
2.68793e-10
2.83228e-10
2.97313e-10
3.11088e-10
3.24191e-10
3.37004e-10
3.49208e-10
3.60844e-10
3.72142e-10
3.82517e-10
3.92486e-10
4.01871e-10
4.10439e-10
4.18581e-10
4.25895e-10
4.32554e-10
4.3877e-10
4.43732e-10
4.48303e-10
4.52357e-10
4.55494e-10
4.5818e-10
4.60087e-10
4.61273e-10
4.62011e-10
4.61844e-10
4.63074e-10
4.65648e-10
4.65314e-10
4.64205e-10
4.61298e-10
4.57999e-10
4.53864e-10
4.48849e-10
4.42844e-10
4.35977e-10
4.28534e-10
4.19626e-10
4.10029e-10
3.98252e-10
3.85585e-10
3.75417e-10
3.66371e-10
3.5695e-10
3.47299e-10
3.3739e-10
3.27243e-10
3.16953e-10
3.06429e-10
2.95839e-10
2.85016e-10
2.74188e-10
2.63234e-10
2.52279e-10
2.41329e-10
2.3038e-10
2.19502e-10
2.08665e-10
1.97918e-10
1.87298e-10
1.76732e-10
1.66427e-10
1.56122e-10
1.46187e-10
1.36289e-10
1.26703e-10
1.17292e-10
1.08091e-10
9.92341e-11
9.04679e-11
8.22166e-11
7.39653e-11
6.6334e-11
5.87218e-11
5.51617e-11
5.16794e-11
4.8197e-11
4.47146e-11
4.14934e-11
3.83218e-11
3.51503e-11
3.20563e-11
2.91618e-11
2.62673e-11
2.3399e-11
2.07226e-11
1.80463e-11
1.54291e-11
1.28873e-11
1.03565e-11
7.85417e-12
5.32454e-12
4.04934e-12
2.73572e-12
1.39312e-12
0
)


113
(
0
1.60984e-11
3.06027e-11
4.40287e-11
5.68005e-11
6.91111e-11
8.10549e-11
9.26957e-11
1.04149e-10
1.15445e-10
1.26489e-10
1.37376e-10
1.48139e-10
1.58597e-10
1.68915e-10
1.79033e-10
1.88848e-10
1.98517e-10
2.07841e-10
2.16928e-10
2.25805e-10
2.34255e-10
2.42191e-10
2.488e-10
2.55736e-10
2.62844e-10
2.69395e-10
2.75708e-10
2.81677e-10
2.87173e-10
2.92426e-10
2.97206e-10
3.01618e-10
3.05781e-10
3.09351e-10
3.12661e-10
3.15626e-10
3.1808e-10
3.20282e-10
3.22047e-10
3.23405e-10
3.24509e-10
3.25096e-10
3.25378e-10
3.25368e-10
3.24849e-10
3.24166e-10
3.2294e-10
3.21518e-10
3.19679e-10
3.17558e-10
3.15118e-10
3.12325e-10
3.09297e-10
3.0588e-10
3.02279e-10
2.98284e-10
2.94129e-10
2.89608e-10
2.84922e-10
2.79926e-10
2.7474e-10
2.69313e-10
2.63663e-10
2.57851e-10
2.51778e-10
2.45621e-10
2.39169e-10
2.32705e-10
2.25924e-10
2.19143e-10
2.12128e-10
2.05069e-10
1.97869e-10
1.90586e-10
1.83234e-10
1.75783e-10
1.68367e-10
1.61128e-10
1.53889e-10
1.4621e-10
1.38487e-10
1.30791e-10
1.2311e-10
1.15465e-10
1.07878e-10
1.00312e-10
9.28672e-11
8.5422e-11
7.8147e-11
7.08773e-11
6.7313e-11
6.3771e-11
6.0229e-11
5.6687e-11
5.32126e-11
4.97511e-11
4.62895e-11
4.28412e-11
3.94267e-11
3.60122e-11
3.25969e-11
2.9176e-11
2.57551e-11
2.23026e-11
1.88101e-11
1.52812e-11
1.16589e-11
7.93174e-12
6.03513e-12
4.06976e-12
2.06527e-12
0
)


113
(
0
1.14201e-11
2.19285e-11
3.16704e-11
4.08442e-11
4.95488e-11
5.78207e-11
6.56825e-11
7.32779e-11
8.06477e-11
8.76681e-11
9.44948e-11
1.01169e-10
1.07518e-10
1.13739e-10
1.19775e-10
1.25568e-10
1.31248e-10
1.36678e-10
1.41948e-10
1.47076e-10
1.51932e-10
1.56678e-10
1.612e-10
1.65526e-10
1.69736e-10
1.73644e-10
1.77425e-10
1.81022e-10
1.8437e-10
1.87589e-10
1.90561e-10
1.9334e-10
1.9599e-10
1.9833e-10
2.00535e-10
2.02559e-10
2.04316e-10
2.0594e-10
2.07336e-10
2.08516e-10
2.09562e-10
2.10332e-10
2.10939e-10
2.11389e-10
2.11562e-10
2.11647e-10
2.11432e-10
2.11109e-10
2.10553e-10
2.09836e-10
2.08938e-10
2.07835e-10
2.06596e-10
2.05124e-10
2.03544e-10
2.01722e-10
1.99802e-10
1.9765e-10
1.95394e-10
1.92933e-10
1.90347e-10
1.87594e-10
1.84688e-10
1.81664e-10
1.78448e-10
1.75168e-10
1.71658e-10
1.68137e-10
1.64349e-10
1.60561e-10
1.56554e-10
1.52505e-10
1.48305e-10
1.44016e-10
1.39635e-10
1.35125e-10
1.30579e-10
1.25867e-10
1.21154e-10
1.16274e-10
1.11379e-10
1.06377e-10
1.01316e-10
9.61978e-11
9.09855e-11
8.57514e-11
8.03942e-11
7.50369e-11
6.95343e-11
6.40273e-11
6.12094e-11
5.83712e-11
5.5533e-11
5.26948e-11
4.97704e-11
4.68297e-11
4.38889e-11
4.09124e-11
3.78441e-11
3.47757e-11
3.16886e-11
2.84646e-11
2.52406e-11
2.19385e-11
1.85369e-11
1.50841e-11
1.14995e-11
7.80551e-12
5.92514e-12
3.98513e-12
2.01485e-12
0
)


113
(
0
5.90021e-12
1.14763e-11
1.67425e-11
2.17512e-11
2.65277e-11
3.10718e-11
3.53749e-11
3.95118e-11
4.35054e-11
4.72668e-11
5.08958e-11
5.44209e-11
5.7723e-11
6.09391e-11
6.40314e-11
6.69648e-11
6.98263e-11
7.2531e-11
7.51407e-11
7.76659e-11
8.00367e-11
8.23474e-11
8.45362e-11
8.66235e-11
8.86505e-11
9.05268e-11
9.23415e-11
9.40679e-11
9.56773e-11
9.72275e-11
9.86646e-11
1.00016e-10
1.01309e-10
1.02466e-10
1.03564e-10
1.04584e-10
1.05489e-10
1.06338e-10
1.07088e-10
1.07748e-10
1.08351e-10
1.08836e-10
1.09253e-10
1.09603e-10
1.09836e-10
1.10031e-10
1.10099e-10
1.1012e-10
1.1004e-10
1.09891e-10
1.09663e-10
1.09345e-10
1.08968e-10
1.08486e-10
1.07956e-10
1.07316e-10
1.06632e-10
1.05839e-10
1.04997e-10
1.04058e-10
1.03059e-10
1.01977e-10
1.00819e-10
9.96002e-11
9.82828e-11
9.69303e-11
9.54535e-11
9.39704e-11
9.23339e-11
9.06974e-11
8.89263e-11
8.71295e-11
8.52312e-11
8.32732e-11
8.12481e-11
7.91264e-11
7.69761e-11
7.46863e-11
7.23965e-11
6.99481e-11
6.7484e-11
6.49032e-11
6.22569e-11
5.95376e-11
5.66992e-11
5.38301e-11
5.0787e-11
4.77439e-11
4.44881e-11
4.12256e-11
3.95053e-11
3.77569e-11
3.60084e-11
3.426e-11
3.24077e-11
3.05355e-11
2.86634e-11
2.67555e-11
2.47555e-11
2.27554e-11
2.07401e-11
1.86123e-11
1.64844e-11
1.43035e-11
1.20549e-11
9.77675e-12
7.42251e-12
5.01287e-12
3.7914e-12
2.5425e-12
1.28056e-12
0
)


113
(
0
4.74131e-13
9.36744e-13
1.38727e-12
1.82685e-12
2.25581e-12
2.67337e-12
3.07803e-12
3.47312e-12
3.85976e-12
4.23166e-12
4.59451e-12
4.95024e-12
5.28961e-12
5.62227e-12
5.94528e-12
6.25522e-12
6.55913e-12
6.84955e-12
7.13147e-12
7.40585e-12
7.66598e-12
7.92048e-12
8.16343e-12
8.39658e-12
8.62391e-12
8.83643e-12
9.04284e-12
9.24045e-12
9.42632e-12
9.60621e-12
9.77464e-12
9.93429e-12
1.00881e-11
1.02279e-11
1.03616e-11
1.04873e-11
1.06012e-11
1.07092e-11
1.08071e-11
1.08955e-11
1.0978e-11
1.10483e-11
1.11113e-11
1.11674e-11
1.12111e-11
1.12509e-11
1.12771e-11
1.12984e-11
1.1309e-11
1.13121e-11
1.13067e-11
1.12916e-11
1.127e-11
1.1237e-11
1.11987e-11
1.11482e-11
1.10928e-11
1.10252e-11
1.09521e-11
1.08679e-11
1.07768e-11
1.06761e-11
1.05666e-11
1.04499e-11
1.03216e-11
1.01892e-11
1.00418e-11
9.89361e-12
9.72679e-12
9.55997e-12
9.37656e-12
9.18998e-12
8.99077e-12
8.78413e-12
8.56911e-12
8.34202e-12
8.11139e-12
7.86339e-12
7.61539e-12
7.34795e-12
7.07858e-12
6.79532e-12
6.50423e-12
6.20483e-12
5.89183e-12
5.57556e-12
5.24065e-12
4.90574e-12
4.54985e-12
4.19331e-12
4.00709e-12
3.81836e-12
3.62963e-12
3.4409e-12
3.24389e-12
3.04532e-12
2.84674e-12
2.64564e-12
2.43805e-12
2.23046e-12
2.02192e-12
1.80637e-12
1.59081e-12
1.37232e-12
1.15007e-12
9.26334e-13
6.98788e-13
4.68685e-13
3.52871e-13
2.35865e-13
1.18314e-13
0
)

)


10
(

113
(
0
1.44968e-20
9.68574e-19
2.49301e-17
2.12442e-16
1.28894e-15
6.41145e-15
2.70456e-14
9.68656e-14
2.95705e-13
7.81901e-13
1.8298e-12
3.87114e-12
7.5387e-12
1.37039e-11
2.39882e-11
4.11203e-11
6.71177e-11
1.05017e-10
1.5838e-10
2.31236e-10
3.27997e-10
4.53509e-10
6.18e-10
8.20156e-10
1.06242e-09
1.34522e-09
1.66707e-09
2.02397e-09
2.40848e-09
2.80932e-09
3.21153e-09
3.59637e-09
3.9396e-09
4.21467e-09
4.38936e-09
4.43869e-09
4.3446e-09
4.10158e-09
3.72348e-09
3.24529e-09
2.72122e-09
2.2108e-09
1.7563e-09
1.37813e-09
1.0788e-09
8.50886e-10
6.81537e-10
5.59699e-10
4.70754e-10
4.03586e-10
3.51631e-10
3.09875e-10
2.74914e-10
2.44426e-10
2.17313e-10
1.9184e-10
1.67551e-10
1.4426e-10
1.22308e-10
1.01873e-10
8.28606e-11
6.56738e-11
5.14322e-11
3.89644e-11
2.87136e-11
2.12441e-11
1.49747e-11
1.06454e-11
7.47129e-12
4.96686e-12
3.55955e-12
2.35789e-12
1.64246e-12
1.10407e-12
7.39935e-13
5.07589e-13
3.26243e-13
2.29115e-13
1.43904e-13
1.01069e-13
6.33666e-14
4.27547e-14
2.63243e-14
1.65454e-14
9.76268e-15
5.39206e-15
3.00568e-15
1.28072e-15
7.04482e-16
2.60795e-16
1.85583e-16
1.10371e-16
5.59703e-17
3.92155e-17
2.24607e-17
1.0076e-17
6.72619e-18
3.3764e-18
1.49851e-18
8.74459e-19
2.7001e-19
1.61845e-19
5.36804e-20
2.25642e-20
4.95068e-21
2.06115e-21
4.06974e-22
5.80987e-23
1.30244e-23
3.34051e-24
2.62342e-25
0
)


113
(
0
6.16305e-16
5.00409e-15
2.53831e-14
8.59455e-14
2.41009e-13
5.9369e-13
1.33682e-12
2.78534e-12
5.39125e-12
9.80404e-12
1.68741e-11
2.76679e-11
4.34901e-11
6.58603e-11
9.73419e-11
1.41334e-10
1.99042e-10
2.72706e-10
3.64492e-10
4.76379e-10
6.09991e-10
7.66443e-10
9.49295e-10
1.15321e-09
1.37573e-09
1.61292e-09
1.85939e-09
2.10879e-09
2.35356e-09
2.58498e-09
2.79468e-09
2.97346e-09
3.11376e-09
3.20945e-09
3.25374e-09
3.24706e-09
3.1898e-09
3.08454e-09
2.93765e-09
2.75531e-09
2.54621e-09
2.31958e-09
2.08367e-09
1.84784e-09
1.61975e-09
1.40446e-09
1.20541e-09
1.02676e-09
8.70071e-10
7.34e-10
6.17558e-10
5.18682e-10
4.35231e-10
3.65179e-10
3.09099e-10
2.62113e-10
2.2204e-10
1.87704e-10
1.5949e-10
1.35329e-10
1.13939e-10
9.53809e-11
7.98819e-11
6.59375e-11
5.38284e-11
4.391e-11
3.49945e-11
2.77719e-11
2.17898e-11
1.65268e-11
1.28166e-11
9.48246e-12
7.08724e-12
5.15384e-12
3.67492e-12
2.64181e-12
1.78121e-12
1.27619e-12
8.24115e-13
5.83128e-13
3.70466e-13
2.52099e-13
1.58054e-13
1.02697e-13
6.40674e-14
3.8904e-14
2.42426e-14
1.30818e-14
8.30989e-15
4.39976e-15
3.40975e-15
2.41975e-15
1.64229e-15
1.24931e-15
8.5634e-16
5.44032e-16
3.98499e-16
2.52966e-16
1.57623e-16
1.05035e-16
5.37638e-17
3.58506e-17
1.79375e-17
1.02072e-17
4.27702e-18
2.21064e-18
8.33493e-19
2.62732e-19
1.19931e-19
5.42054e-20
1.67161e-20
0
)


113
(
0
9.75301e-13
2.82833e-12
6.09617e-12
1.10942e-11
1.84211e-11
2.88425e-11
4.29436e-11
6.15151e-11
8.51801e-11
1.14776e-10
1.50961e-10
1.94192e-10
2.44864e-10
3.03298e-10
3.70172e-10
4.46206e-10
5.30149e-10
6.21561e-10
7.19832e-10
8.24175e-10
9.33612e-10
1.04693e-09
1.16284e-09
1.27908e-09
1.39429e-09
1.5066e-09
1.61418e-09
1.71522e-09
1.80814e-09
1.89173e-09
1.96418e-09
2.02427e-09
2.07169e-09
2.10463e-09
2.12394e-09
2.12881e-09
2.11914e-09
2.09595e-09
2.0594e-09
2.01134e-09
1.95122e-09
1.88196e-09
1.80435e-09
1.71887e-09
1.62789e-09
1.53392e-09
1.43662e-09
1.33736e-09
1.23829e-09
1.14042e-09
1.04507e-09
9.52445e-10
8.63005e-10
7.77655e-10
6.9832e-10
6.24174e-10
5.54773e-10
4.89951e-10
4.31393e-10
3.78345e-10
3.29551e-10
2.85578e-10
2.4759e-10
2.12812e-10
1.81898e-10
1.55746e-10
1.31786e-10
1.11536e-10
9.40231e-11
7.80969e-11
6.5684e-11
5.41596e-11
4.48715e-11
3.67869e-11
2.98865e-11
2.43677e-11
1.93835e-11
1.57263e-11
1.2285e-11
9.85406e-12
7.60383e-12
5.95521e-12
4.52483e-12
3.4416e-12
2.57471e-12
1.88199e-12
1.3897e-12
9.64222e-13
7.03218e-13
4.75374e-13
3.99473e-13
3.23572e-13
2.58863e-13
2.14398e-13
1.69933e-13
1.31834e-13
1.06897e-13
8.19589e-14
6.28088e-14
4.85886e-14
3.46009e-14
2.64968e-14
1.83927e-14
1.31808e-14
8.48627e-15
5.64715e-15
3.34347e-15
1.75408e-15
1.15045e-15
7.02016e-16
3.27635e-16
0
)


113
(
0
1.19408e-11
2.56783e-11
4.28942e-11
6.35048e-11
8.76933e-11
1.15608e-10
1.47317e-10
1.82807e-10
2.21998e-10
2.64749e-10
3.10881e-10
3.60553e-10
4.13659e-10
4.69309e-10
5.27087e-10
5.86798e-10
6.48099e-10
7.10102e-10
7.72527e-10
8.34947e-10
8.96487e-10
9.57203e-10
1.01668e-09
1.07468e-09
1.13022e-09
1.18282e-09
1.23213e-09
1.27785e-09
1.31973e-09
1.35741e-09
1.39037e-09
1.41813e-09
1.44108e-09
1.45867e-09
1.47098e-09
1.4777e-09
1.48e-09
1.47712e-09
1.46858e-09
1.45563e-09
1.43745e-09
1.4152e-09
1.38845e-09
1.35809e-09
1.32373e-09
1.28621e-09
1.24627e-09
1.2035e-09
1.158e-09
1.11101e-09
1.06303e-09
1.01367e-09
9.63327e-10
9.13283e-10
8.63117e-10
8.13094e-10
7.63401e-10
7.14184e-10
6.66007e-10
6.19474e-10
5.74262e-10
5.30591e-10
4.88908e-10
4.4858e-10
4.10005e-10
3.74055e-10
3.39486e-10
3.07453e-10
2.77486e-10
2.48716e-10
2.23191e-10
1.98635e-10
1.76582e-10
1.56179e-10
1.374e-10
1.20764e-10
1.04957e-10
9.1583e-11
7.864e-11
6.79751e-11
5.78146e-11
4.9333e-11
4.15456e-11
3.48622e-11
2.90045e-11
2.38117e-11
1.95429e-11
1.55821e-11
1.26302e-11
9.91087e-12
8.81943e-12
7.72799e-12
6.73916e-12
5.93597e-12
5.13278e-12
4.39942e-12
3.81045e-12
3.22148e-12
2.7169e-12
2.28421e-12
1.85579e-12
1.53541e-12
1.21504e-12
9.62581e-13
7.22365e-13
5.37164e-13
3.71026e-13
2.30962e-13
1.68297e-13
1.11202e-13
5.58847e-14
0
)


113
(
0
2.68006e-11
5.21361e-11
7.86787e-11
1.06923e-10
1.37015e-10
1.68905e-10
2.02428e-10
2.37377e-10
2.73534e-10
3.10691e-10
3.48654e-10
3.87237e-10
4.26262e-10
4.65558e-10
5.04945e-10
5.44189e-10
5.83111e-10
6.21546e-10
6.59331e-10
6.96302e-10
7.32302e-10
7.67166e-10
8.00519e-10
8.32755e-10
8.65335e-10
8.95769e-10
9.23571e-10
9.49159e-10
9.72373e-10
9.92975e-10
1.01061e-09
1.0271e-09
1.04131e-09
1.05277e-09
1.06107e-09
1.06801e-09
1.07232e-09
1.0737e-09
1.07299e-09
1.07011e-09
1.06503e-09
1.05791e-09
1.04851e-09
1.03704e-09
1.02371e-09
1.009e-09
9.91792e-10
9.73683e-10
9.53559e-10
9.32037e-10
9.09388e-10
8.85617e-10
8.6084e-10
8.3533e-10
8.0867e-10
7.80973e-10
7.52993e-10
7.24946e-10
6.96312e-10
6.67372e-10
6.3833e-10
6.0929e-10
5.80296e-10
5.5146e-10
5.22869e-10
4.9475e-10
4.67044e-10
4.40263e-10
4.13589e-10
3.86975e-10
3.61862e-10
3.3712e-10
3.13309e-10
2.90095e-10
2.6747e-10
2.46257e-10
2.25589e-10
2.06643e-10
1.88002e-10
1.70988e-10
1.5438e-10
1.39128e-10
1.24541e-10
1.11014e-10
9.84032e-11
8.65294e-11
7.58181e-11
6.54942e-11
5.65807e-11
4.80567e-11
4.4247e-11
4.04374e-11
3.68293e-11
3.35859e-11
3.03425e-11
2.72592e-11
2.45071e-11
2.1755e-11
1.92284e-11
1.68938e-11
1.45722e-11
1.25819e-11
1.05916e-11
8.83133e-12
7.11253e-12
5.58615e-12
4.12168e-12
2.73538e-12
2.05991e-12
1.38801e-12
7.06565e-13
0
)


113
(
0
3.19095e-11
6.04645e-11
8.77323e-11
1.14663e-10
1.41616e-10
1.68751e-10
1.96101e-10
2.23627e-10
2.51251e-10
2.78883e-10
3.0643e-10
3.33803e-10
3.6092e-10
3.877e-10
4.14033e-10
4.39796e-10
4.64979e-10
4.89524e-10
5.13372e-10
5.36469e-10
5.58763e-10
5.802e-10
6.0059e-10
6.20032e-10
6.3849e-10
6.55928e-10
6.72315e-10
6.87621e-10
7.01821e-10
7.14892e-10
7.26819e-10
7.37584e-10
7.47182e-10
7.55665e-10
7.6285e-10
7.68855e-10
7.73696e-10
7.77383e-10
7.79926e-10
7.81343e-10
7.81619e-10
7.80794e-10
7.80202e-10
7.86499e-10
7.85245e-10
7.81671e-10
7.76937e-10
7.70011e-10
7.617e-10
7.5223e-10
7.4112e-10
7.28984e-10
7.1601e-10
7.01731e-10
6.86796e-10
6.69673e-10
6.48842e-10
6.25634e-10
6.09856e-10
5.93595e-10
5.76982e-10
5.5999e-10
5.42571e-10
5.24943e-10
5.0707e-10
4.89412e-10
4.71568e-10
4.53077e-10
4.34556e-10
4.16016e-10
3.97531e-10
3.7909e-10
3.60775e-10
3.426e-10
3.24564e-10
3.06809e-10
2.89163e-10
2.71969e-10
2.54864e-10
2.38311e-10
2.21915e-10
2.06046e-10
1.90471e-10
1.75363e-10
1.6071e-10
1.46423e-10
1.32785e-10
1.19363e-10
1.06824e-10
9.45562e-11
8.87386e-11
8.29209e-11
7.7259e-11
7.18788e-11
6.64987e-11
6.12524e-11
5.62829e-11
5.13135e-11
4.65404e-11
4.19346e-11
3.734e-11
3.30287e-11
2.87174e-11
2.45808e-11
2.04754e-11
1.64736e-11
1.24759e-11
8.45807e-12
6.42639e-12
4.34435e-12
2.21117e-12
0
)


113
(
0
2.7992e-11
5.31011e-11
7.63106e-11
9.83678e-11
1.19582e-10
1.4016e-10
1.60243e-10
1.79918e-10
1.99233e-10
2.18212e-10
2.36859e-10
2.55172e-10
2.73137e-10
2.90741e-10
3.07937e-10
3.24674e-10
3.40982e-10
3.56843e-10
3.72239e-10
3.8715e-10
4.01561e-10
4.15454e-10
4.26236e-10
4.38256e-10
4.49974e-10
4.61084e-10
4.71578e-10
4.81444e-10
4.90673e-10
4.9926e-10
5.07197e-10
5.14481e-10
5.21108e-10
5.27076e-10
5.3237e-10
5.37007e-10
5.40995e-10
5.44336e-10
5.47034e-10
5.49095e-10
5.50505e-10
5.51281e-10
5.51438e-10
5.50989e-10
5.49941e-10
5.48306e-10
5.46097e-10
5.43284e-10
5.39891e-10
5.35957e-10
5.31494e-10
5.26522e-10
5.21063e-10
5.15141e-10
5.08643e-10
5.01685e-10
4.9432e-10
4.86572e-10
4.78328e-10
4.6967e-10
4.60696e-10
4.51367e-10
4.41591e-10
4.31568e-10
4.21245e-10
4.10542e-10
3.99657e-10
3.88463e-10
3.77028e-10
3.65454e-10
3.53555e-10
3.41572e-10
3.29374e-10
3.17058e-10
3.04625e-10
2.92067e-10
2.79459e-10
2.67615e-10
2.55755e-10
2.42772e-10
2.29804e-10
2.16887e-10
2.04019e-10
1.91228e-10
1.78537e-10
1.65926e-10
1.53486e-10
1.41104e-10
1.2898e-10
1.1694e-10
1.11017e-10
1.05094e-10
9.92176e-11
9.34242e-11
8.76308e-11
8.18713e-11
7.61821e-11
7.04928e-11
6.48357e-11
5.9206e-11
5.35763e-11
4.79448e-11
4.23133e-11
3.66198e-11
3.09145e-11
2.50699e-11
1.91279e-11
1.30191e-11
9.89534e-12
6.67826e-12
3.38761e-12
0
)


113
(
0
1.96941e-11
3.77677e-11
5.45044e-11
7.02597e-11
8.51709e-11
9.93498e-11
1.12896e-10
1.2589e-10
1.38398e-10
1.50468e-10
1.62136e-10
1.7343e-10
1.84371e-10
1.94972e-10
2.05222e-10
2.15111e-10
2.24684e-10
2.33944e-10
2.4289e-10
2.51524e-10
2.59842e-10
2.67843e-10
2.75475e-10
2.82787e-10
2.89777e-10
2.96441e-10
3.02778e-10
3.08783e-10
3.14455e-10
3.19791e-10
3.24789e-10
3.29447e-10
3.33764e-10
3.37738e-10
3.41362e-10
3.44644e-10
3.47586e-10
3.5019e-10
3.52455e-10
3.54385e-10
3.55969e-10
3.57214e-10
3.58128e-10
3.58713e-10
3.58973e-10
3.58911e-10
3.58532e-10
3.57815e-10
3.56771e-10
3.55419e-10
3.53761e-10
3.51806e-10
3.49563e-10
3.47043e-10
3.44174e-10
3.41018e-10
3.37606e-10
3.3395e-10
3.29971e-10
3.25714e-10
3.21242e-10
3.16523e-10
3.11483e-10
3.0626e-10
3.00813e-10
2.95065e-10
2.89169e-10
2.83014e-10
2.76643e-10
2.70147e-10
2.63333e-10
2.56427e-10
2.49285e-10
2.41992e-10
2.34549e-10
2.26904e-10
2.1918e-10
2.11218e-10
2.03214e-10
1.94988e-10
1.8671e-10
1.78262e-10
1.69736e-10
1.61084e-10
1.52327e-10
1.43486e-10
1.34505e-10
1.25477e-10
1.1626e-10
1.0698e-10
1.02265e-10
9.7551e-11
9.2793e-11
8.79563e-11
8.31196e-11
7.82352e-11
7.32519e-11
6.82686e-11
6.31902e-11
5.80308e-11
5.28635e-11
4.74976e-11
4.21317e-11
3.65687e-11
3.09696e-11
2.51297e-11
1.91684e-11
1.30169e-11
9.87144e-12
6.64402e-12
3.35807e-12
0
)


113
(
0
1.01023e-11
1.96364e-11
2.86345e-11
3.71932e-11
4.53372e-11
5.30903e-11
6.04801e-11
6.75346e-11
7.42796e-11
8.07377e-11
8.69281e-11
9.28671e-11
9.8568e-11
1.04043e-10
1.09286e-10
1.14298e-10
1.19111e-10
1.23733e-10
1.2817e-10
1.32424e-10
1.36502e-10
1.40405e-10
1.44112e-10
1.47654e-10
1.51033e-10
1.54252e-10
1.57312e-10
1.60215e-10
1.62963e-10
1.65556e-10
1.67996e-10
1.70284e-10
1.72421e-10
1.74409e-10
1.76244e-10
1.77932e-10
1.79474e-10
1.80872e-10
1.82127e-10
1.83239e-10
1.84204e-10
1.85026e-10
1.85708e-10
1.86251e-10
1.86655e-10
1.86922e-10
1.87053e-10
1.8704e-10
1.86884e-10
1.86595e-10
1.86172e-10
1.85618e-10
1.84937e-10
1.84131e-10
1.83168e-10
1.82073e-10
1.80859e-10
1.79532e-10
1.78051e-10
1.76436e-10
1.74716e-10
1.72874e-10
1.70869e-10
1.68769e-10
1.66551e-10
1.64171e-10
1.61708e-10
1.591e-10
1.56363e-10
1.53552e-10
1.50542e-10
1.47472e-10
1.44243e-10
1.40905e-10
1.3746e-10
1.33855e-10
1.30188e-10
1.26312e-10
1.22398e-10
1.18266e-10
1.14077e-10
1.09699e-10
1.05223e-10
1.0059e-10
9.58083e-11
9.09078e-11
8.57963e-11
8.06145e-11
7.51388e-11
6.95685e-11
6.66729e-11
6.37774e-11
6.08234e-11
5.77636e-11
5.47038e-11
5.15884e-11
4.8358e-11
4.51276e-11
4.18032e-11
3.83987e-11
3.49877e-11
3.14104e-11
2.78332e-11
2.41151e-11
2.03713e-11
1.64781e-11
1.25179e-11
8.45694e-12
6.39172e-12
4.28843e-12
2.15944e-12
0
)


113
(
0
8.07312e-13
1.59468e-12
2.36134e-12
3.1095e-12
3.83883e-12
4.54903e-12
5.24014e-12
5.91242e-12
6.5662e-12
7.20186e-12
7.81973e-12
8.42012e-12
9.00327e-12
9.56938e-12
1.01174e-11
1.06467e-11
1.11593e-11
1.16556e-11
1.21355e-11
1.25992e-11
1.30467e-11
1.34781e-11
1.3891e-11
1.42882e-11
1.46696e-11
1.50353e-11
1.53855e-11
1.572e-11
1.60391e-11
1.63426e-11
1.66308e-11
1.69035e-11
1.71609e-11
1.74031e-11
1.76296e-11
1.78411e-11
1.80375e-11
1.82191e-11
1.83858e-11
1.85378e-11
1.86745e-11
1.87963e-11
1.89034e-11
1.89959e-11
1.90738e-11
1.91373e-11
1.91863e-11
1.922e-11
1.92386e-11
1.92427e-11
1.92324e-11
1.92079e-11
1.91695e-11
1.91174e-11
1.90479e-11
1.89638e-11
1.88664e-11
1.87562e-11
1.86285e-11
1.84855e-11
1.83303e-11
1.8161e-11
1.79725e-11
1.77727e-11
1.7559e-11
1.73257e-11
1.70824e-11
1.68213e-11
1.65445e-11
1.62585e-11
1.59477e-11
1.56293e-11
1.5291e-11
1.4939e-11
1.45734e-11
1.41875e-11
1.37938e-11
1.33738e-11
1.2949e-11
1.2497e-11
1.20381e-11
1.15561e-11
1.10625e-11
1.05503e-11
1.00214e-11
9.47882e-12
8.91365e-12
8.34093e-12
7.73874e-12
7.12777e-12
6.81206e-12
6.49635e-12
6.17569e-12
5.84607e-12
5.51646e-12
5.18257e-12
4.83985e-12
4.49713e-12
4.14788e-12
3.79306e-12
3.43783e-12
3.07215e-12
2.70647e-12
2.33273e-12
1.95753e-12
1.57448e-12
1.18817e-12
7.97056e-13
5.99904e-13
4.01083e-13
2.01172e-13
0
)

)


10
(

113
(
0
1.66319e-19
1.06077e-17
1.72371e-16
1.47688e-15
9.92839e-15
5.4652e-14
2.4533e-13
8.77162e-13
2.56565e-12
6.38579e-12
1.37283e-11
2.615e-11
4.57154e-11
7.48692e-11
1.20233e-10
1.84e-10
2.65846e-10
3.6475e-10
5.0225e-10
6.62769e-10
8.6e-10
1.098e-09
1.36692e-09
1.65154e-09
1.9875e-09
2.35833e-09
2.75417e-09
3.1675e-09
3.5925e-09
4.0175e-09
4.45273e-09
4.82667e-09
5.145e-09
5.40364e-09
5.57455e-09
5.62364e-09
5.52455e-09
5.27e-09
4.86091e-09
4.34545e-09
3.728e-09
3.14182e-09
2.557e-09
2.04909e-09
1.63091e-09
1.28545e-09
1.01133e-09
8.01167e-10
6.37e-10
5.23923e-10
4.24083e-10
3.42769e-10
2.77571e-10
2.25429e-10
1.81857e-10
1.43571e-10
1.1e-10
8.59333e-11
6.56187e-11
4.90563e-11
3.705e-11
2.67688e-11
1.93313e-11
1.40529e-11
9.7e-12
7.28889e-12
5.08667e-12
3.72e-12
2.59778e-12
1.84222e-12
1.30821e-12
9.21895e-13
6.62684e-13
4.57947e-13
3.354e-13
2.334e-13
1.706e-13
1.176e-13
8.488e-14
5.723e-14
4.038e-14
2.623e-14
1.75347e-14
1.02032e-14
6.671e-15
3.561e-15
2.0775e-15
8.66e-16
4.76e-16
1.74006e-16
1.25682e-16
7.73588e-17
3.66963e-17
2.66775e-17
1.66588e-17
6.64e-18
4.77667e-18
2.91333e-18
1.05e-18
6.775e-19
3.05e-19
1.19427e-19
5.84727e-20
1.77156e-20
7.25444e-21
1.942e-21
3.75867e-22
6.52e-23
3.07625e-23
5.86e-24
6.0225e-25
0
)


113
(
0
4.9962e-15
3.79523e-14
1.64435e-13
5.12267e-13
1.34441e-12
3.13922e-12
6.61804e-12
1.27697e-11
2.29051e-11
3.84206e-11
6.12209e-11
9.27427e-11
1.35112e-10
1.92982e-10
2.67611e-10
3.60605e-10
4.7409e-10
6.07141e-10
7.67224e-10
9.55353e-10
1.16517e-09
1.3985e-09
1.65344e-09
1.92812e-09
2.21937e-09
2.51894e-09
2.8208e-09
3.11837e-09
3.4046e-09
3.66802e-09
3.89815e-09
4.08641e-09
4.22878e-09
4.32085e-09
4.35424e-09
4.32871e-09
4.24425e-09
4.10439e-09
3.90921e-09
3.67232e-09
3.4049e-09
3.11289e-09
2.80917e-09
2.50292e-09
2.20285e-09
1.91502e-09
1.64571e-09
1.39791e-09
1.17463e-09
9.83881e-10
8.15238e-10
6.70664e-10
5.46218e-10
4.43899e-10
3.60435e-10
2.89375e-10
2.29853e-10
1.85539e-10
1.4741e-10
1.15466e-10
9.19265e-11
7.13525e-11
5.55206e-11
4.3193e-11
3.23673e-11
2.52714e-11
1.86998e-11
1.42255e-11
1.04446e-11
7.70396e-12
5.64361e-12
4.03683e-12
2.92946e-12
2.03612e-12
1.48042e-12
1.00914e-12
7.24925e-13
4.87482e-13
3.46802e-13
2.30313e-13
1.62033e-13
1.05805e-13
7.30927e-14
4.62594e-14
3.21411e-14
1.94355e-14
1.2947e-14
7.46408e-15
4.81304e-15
2.61999e-15
2.0578e-15
1.49562e-15
1.00168e-15
7.80734e-16
5.59791e-16
3.38848e-16
2.57896e-16
1.76944e-16
9.5992e-17
6.80231e-17
4.00543e-17
2.31192e-17
1.354e-17
6.53466e-18
3.39027e-18
1.48307e-18
5.41638e-19