/*--------------------------------*- C++ -*----------------------------------*\
| =========                 |                                                 |
| \\      /  F ield         | OpenFOAM: The Open Source CFD Toolbox           |
|  \\    /   O peration     | Version:  2.3.0                                 |
|   \\  /    A nd           | Web:      www.OpenFOAM.org                      |
|    \\/     M anipulation  |                                                 |
\*---------------------------------------------------------------------------*/
FoamFile
{
    version     2.0;
    format      ascii;
    class       dictionary;
    location    "constant";
    object      NO;
}
// * * * * * * * * * * * * * * * * * * * * * * * * * * * * * * * * * * * * * //

NO_table
13
(

10
(

113
(
0
8.45667e-06
1.75277e-05
2.6984e-05
3.66746e-05
4.66476e-05
5.69651e-05
6.77146e-05
7.88531e-05
9.03576e-05
0.000102609
0.000114821
0.000127
0.00013895
0.000150839
0.00016264
0.000174816
0.00018697
0.000198555
0.000210178
0.000221834
0.000233427
0.000245049
0.000256778
0.000268111
0.000279211
0.00028977
0.000299311
0.000307385
0.000313528
0.000318525
0.000321025
0.000321616
0.00032095
0.000318434
0.000315095
0.000310665
0.00030462
0.000297266
0.000287139
0.000273892
0.000258689
0.000239435
0.000219922
0.000200162
0.000181462
0.000163218
0.000147017
0.000131849
0.000118876
0.000106848
9.5885e-05
8.6125e-05
7.71667e-05
6.92604e-05
6.18492e-05
5.53416e-05
4.9203e-05
4.38667e-05
3.88908e-05
3.4461e-05
3.03657e-05
2.66991e-05
2.3428e-05
2.04324e-05
1.78861e-05
1.54761e-05
1.35495e-05
1.16476e-05
1.03385e-05
9.02945e-06
8.09403e-06
7.22977e-06
6.56662e-06
6.02158e-06
5.54808e-06
5.17754e-06
4.81283e-06
4.47655e-06
4.14027e-06
3.78128e-06
3.42004e-06
3.03513e-06
2.6369e-06
2.24175e-06
1.85161e-06
1.47177e-06
1.15021e-06
8.28647e-07
6.15254e-07
4.05206e-07
3.38122e-07
2.8302e-07
2.27918e-07
1.72816e-07
1.41891e-07
1.15571e-07
8.92506e-08
6.67557e-08
5.40975e-08
4.14392e-08
2.95388e-08
2.31955e-08
1.68522e-08
1.18089e-08
8.42e-09
5.42e-09
3.42e-09
1.87964e-09
1.2408e-09
7.508e-10
3.32524e-10
0
)


113
(
0
8.73515e-06
1.80021e-05
2.75519e-05
3.74604e-05
4.76835e-05
5.82428e-05
6.91659e-05
8.03299e-05
9.16953e-05
0.000103331
0.000115066
0.000126877
0.000138756
0.000150626
0.000162484
0.000174262
0.000185989
0.000197562
0.00020897
0.000220231
0.000231046
0.000241619
0.000251642
0.000261
0.000269957
0.000277576
0.000284504
0.00029044
0.000294813
0.000298339
0.00030015
0.000300538
0.000299969
0.00029705
0.000293099
0.000287778
0.000280509
0.000272333
0.000262634
0.000251723
0.00024011
0.000227339
0.000214155
0.000200574
0.000186803
0.000173034
0.000159578
0.000146406
0.000133837
0.000121859
0.000110547
0.000100094
9.02135e-05
8.13297e-05
7.29151e-05
6.54862e-05
5.846e-05
5.22982e-05
4.65248e-05
4.14346e-05
3.67631e-05
3.25779e-05
2.88416e-05
2.54093e-05
2.2473e-05
1.96857e-05
1.74273e-05
1.51915e-05
1.35005e-05
1.18094e-05
1.05025e-05
9.26875e-06
8.25067e-06
7.35925e-06
6.56744e-06
5.91897e-06
5.29591e-06
4.79688e-06
4.29786e-06
3.8725e-06
3.45443e-06
3.06498e-06
2.69162e-06
2.3324e-06
1.99623e-06
1.66746e-06
1.38064e-06
1.09382e-06
8.69866e-07
6.4786e-07
5.63011e-07
4.86421e-07
4.09832e-07
3.33243e-07
2.81229e-07
2.33897e-07
1.86565e-07
1.44992e-07
1.18229e-07
9.14662e-08
6.61917e-08
5.18312e-08
3.74706e-08
2.60263e-08
1.82935e-08
1.14961e-08
7.104e-09
3.79093e-09
2.4454e-09
1.48018e-09
6.61971e-10
0
)


113
(
0
9.5116e-06
1.90675e-05
2.90451e-05
3.92712e-05
4.97358e-05
6.05843e-05
7.1392e-05
8.2253e-05
9.31679e-05
0.000104085
0.000115
0.000125913
0.000136679
0.00014733
0.000157815
0.000167964
0.000177931
0.000187419
0.000196516
0.000205265
0.000213223
0.000220823
0.000227653
0.000233755
0.000239424
0.00024388
0.000247785
0.000250898
0.00025291
0.000254348
0.000254664
0.000254123
0.000253008
0.000250552
0.000247541
0.000243795
0.000239038
0.000233815
0.000227816
0.000221189
0.00021419
0.000206525
0.000198552
0.000190284
0.000181682
0.00017299
0.000164073
0.000155154
0.00014623
0.000137398
0.000128671
0.000120167
0.000111811
0.000103815
9.59876e-05
8.86102e-05
8.14166e-05
7.47274e-05
6.82648e-05
6.22976e-05
5.66339e-05
5.13743e-05
4.64876e-05
4.18895e-05
3.77624e-05
3.37919e-05
3.03765e-05
2.69867e-05
2.42104e-05
2.14341e-05
1.913e-05
1.69157e-05
1.49954e-05
1.32476e-05
1.1657e-05
1.02925e-05
8.98126e-06
7.92961e-06
6.87796e-06
6.0547e-06
5.25403e-06
4.57048e-06
3.9528e-06
3.38952e-06
2.91497e-06
2.4572e-06
2.09444e-06
1.73167e-06
1.44854e-06
1.16787e-06
1.05347e-06
9.47269e-07
8.41066e-07
7.34864e-07
6.51195e-07
5.71818e-07
4.9244e-07
4.18888e-07
3.60314e-07
3.0174e-07
2.45174e-07
2.03339e-07
1.61504e-07
1.24872e-07
9.4863e-08
6.71396e-08
4.5294e-08
2.70122e-08
1.89165e-08
1.22837e-08
6.09823e-09
0
)


113
(
0
1.05116e-05
2.00316e-05
2.97141e-05
3.9554e-05
4.94623e-05
5.9366e-05
6.91863e-05
7.89056e-05
8.85233e-05
9.79031e-05
0.000107092
0.00011613
0.000125064
0.000133692
0.000141881
0.000149539
0.000156947
0.000163777
0.000170167
0.000176166
0.0001815
0.000186564
0.000191072
0.000195014
0.00019862
0.000201404
0.000203829
0.000205737
0.000206989
0.000207901
0.000208145
0.000207909
0.000207349
0.000206001
0.000204347
0.000202287
0.00019965
0.000196742
0.000193377
0.000189625
0.000185641
0.000181231
0.000176588
0.00017172
0.000166563
0.000161317
0.000155798
0.000150208
0.000144465
0.00013867
0.000132816
0.000126958
0.000121096
0.000115256
0.000109427
0.00010369
9.79907e-05
9.24666e-05
8.70212e-05
8.17487e-05
7.65822e-05
7.15935e-05
6.6769e-05
6.20988e-05
5.76804e-05
5.33529e-05
4.93478e-05
4.53602e-05
4.17924e-05
3.82246e-05
3.5008e-05
3.18583e-05
2.89804e-05
2.6262e-05
2.37096e-05
2.13962e-05
1.91452e-05
1.71987e-05
1.52523e-05
1.36127e-05
1.20034e-05
1.05865e-05
9.27783e-06
8.06722e-06
7.01661e-06
5.99849e-06
5.16447e-06
4.33045e-06
3.67903e-06
3.03326e-06
2.7655e-06
2.51515e-06
2.2648e-06
2.01445e-06
1.81168e-06
1.61798e-06
1.42427e-06
1.24272e-06
1.0924e-06
9.42089e-07
7.95711e-07
6.78202e-07
5.60693e-07
4.53912e-07
3.60786e-07
2.72472e-07
1.9653e-07
1.27333e-07
9.46278e-08
6.3707e-08
3.26298e-08
0
)


113
(
0
1.04124e-05
1.93461e-05
2.78373e-05
3.61963e-05
4.44729e-05
5.26474e-05
6.06491e-05
6.84858e-05
7.61655e-05
8.35222e-05
9.0652e-05
9.76036e-05
0.000104104
0.000110406
0.00011642
0.000122023
0.00012743
0.000132391
0.000137058
0.000141466
0.000145368
0.000149066
0.000152346
0.000155407
0.000158335
0.000160727
0.000162838
0.000164543
0.000165766
0.000166757
0.000167325
0.000167583
0.000167633
0.000167158
0.000166495
0.000165582
0.000164296
0.00016284
0.000161102
0.000159117
0.00015698
0.000154534
0.000151932
0.00014918
0.000146176
0.000143099
0.000139827
0.000136473
0.000132944
0.000129339
0.000125649
0.000121884
0.000118069
0.000114172
0.000110237
0.00010629
0.000102338
9.83486e-05
9.4343e-05
9.03694e-05
8.64154e-05
8.25155e-05
7.86655e-05
7.48417e-05
7.10606e-05
6.73239e-05
6.37447e-05
6.01714e-05
5.67413e-05
5.33111e-05
5.0017e-05
4.67489e-05
4.36541e-05
4.0661e-05
3.77457e-05
3.4942e-05
3.21914e-05
2.97003e-05
2.72091e-05
2.49516e-05
2.27172e-05
2.0646e-05
1.86665e-05
1.67808e-05
1.5048e-05
1.33502e-05
1.18506e-05
1.03511e-05
9.06001e-06
7.77539e-06
7.2063e-06
6.66034e-06
6.11437e-06
5.5684e-06
5.09308e-06
4.63121e-06
4.16934e-06
3.72755e-06
3.3374e-06
2.94725e-06
2.56417e-06
2.23292e-06
1.90168e-06
1.58989e-06
1.30287e-06
1.02356e-06
7.64039e-07
5.1162e-07
3.87166e-07
2.61853e-07
1.33915e-07
0
)


113
(
0
8.93692e-06
1.66027e-05
2.3577e-05
3.01873e-05
3.65514e-05
4.27108e-05
4.86669e-05
5.44707e-05
6.0138e-05
6.55511e-05
7.07934e-05
7.59014e-05
8.06766e-05
8.5307e-05
8.9729e-05
9.38568e-05
9.78471e-05
0.000101525
0.000105002
0.000108302
0.000111262
0.000114087
0.000116637
0.000118953
0.000121131
0.000122959
0.000124645
0.000126126
0.000127339
0.000128417
0.000129238
0.00012987
0.000130372
0.000130476
0.0001305
0.000130419
0.000130108
0.000129688
0.000129082
0.000128311
0.000127439
0.000126369
0.000125787
0.000125672
0.000124622
0.000123351
0.000121739
0.000120009
0.000118026
0.000115904
0.000113622
0.000111174
0.000108614
0.000105878
0.00010306
9.96471e-05
9.59914e-05
9.30184e-05
9.0352e-05
8.7643e-05
8.49077e-05
8.21493e-05
7.93694e-05
7.65819e-05
7.37818e-05
7.09952e-05
6.82561e-05
6.55153e-05
6.27326e-05
5.99499e-05
5.72117e-05
5.44821e-05
5.17976e-05
4.91397e-05
4.65183e-05
4.39495e-05
4.13987e-05
3.89355e-05
3.64723e-05
3.41187e-05
3.17759e-05
2.95181e-05
2.73081e-05
2.51522e-05
2.30847e-05
2.10395e-05
1.91212e-05
1.7203e-05
1.54329e-05
1.36673e-05
1.28421e-05
1.2035e-05
1.1228e-05
1.04209e-05
9.67396e-06
8.93848e-06
8.203e-06
7.48518e-06
6.8128e-06
6.14041e-06
5.47393e-06
4.85068e-06
4.22744e-06
3.61722e-06
3.0236e-06
2.43209e-06
1.84603e-06
1.25262e-06
9.53192e-07
6.4425e-07
3.28247e-07
0
)


113
(
0
6.72638e-06
1.26447e-05
1.7986e-05
2.29521e-05
2.76341e-05
3.20709e-05
3.62847e-05
4.03532e-05
4.42979e-05
4.80438e-05
5.16722e-05
5.52082e-05
5.85333e-05
6.17707e-05
6.4882e-05
6.78193e-05
7.06757e-05
7.33491e-05
7.59055e-05
7.83583e-05
8.06133e-05
8.26881e-05
8.43128e-05
8.59972e-05
8.77109e-05
8.92088e-05
9.06181e-05
9.19001e-05
9.30139e-05
9.40427e-05
9.49097e-05
9.56551e-05
9.63189e-05
9.67935e-05
9.7188e-05
9.74763e-05
9.7612e-05
9.7674e-05
9.76098e-05
9.74311e-05
9.71819e-05
9.67915e-05
9.63206e-05
9.57724e-05
9.50934e-05
9.43729e-05
9.35169e-05
9.26136e-05
9.16099e-05
9.05399e-05
8.93954e-05
8.81711e-05
8.68937e-05
8.55312e-05
8.41286e-05
8.26432e-05
8.1124e-05
7.95307e-05
7.79043e-05
7.62179e-05
7.44948e-05
7.27273e-05
7.0919e-05
6.90829e-05
6.72013e-05
6.53065e-05
6.33644e-05
6.14204e-05
5.94306e-05
5.74407e-05
5.54216e-05
5.33969e-05
5.13586e-05
4.93121e-05
4.72622e-05
4.5207e-05
4.31701e-05
4.12221e-05
3.92741e-05
3.72235e-05
3.51627e-05
3.31268e-05
3.11048e-05
2.91015e-05
2.71287e-05
2.51647e-05
2.325e-05
2.13354e-05
1.94823e-05
1.76312e-05
1.67295e-05
1.58353e-05
1.49412e-05
1.40471e-05
1.31755e-05
1.23081e-05
1.14408e-05
1.05783e-05
9.72819e-06
8.87806e-06
8.02828e-06
7.181e-06
6.33372e-06
5.48021e-06
4.61877e-06
3.74914e-06
2.85845e-06
1.94325e-06
1.47793e-06
9.96336e-07
5.05421e-07
0
)


113
(
0
4.36246e-06
8.33202e-06
1.19676e-05
1.53528e-05
1.85291e-05
2.15107e-05
2.43056e-05
2.69779e-05
2.95464e-05
3.19531e-05
3.427e-05
3.65164e-05
3.86131e-05
4.06517e-05
4.26068e-05
4.44532e-05
4.625e-05
4.79373e-05
4.95568e-05
5.11161e-05
5.25626e-05
5.39646e-05
5.52757e-05
5.65097e-05
5.7698e-05
5.87701e-05
5.97944e-05
6.07498e-05
6.16136e-05
6.24309e-05
6.31593e-05
6.38199e-05
6.44352e-05
6.49437e-05
6.54065e-05
6.58085e-05
6.61219e-05
6.63921e-05
6.65877e-05
6.67147e-05
6.67991e-05
6.67972e-05
6.6745e-05
6.66446e-05
6.64608e-05
6.62502e-05
6.5951e-05
6.56202e-05
6.52218e-05
6.47776e-05
6.42817e-05
6.37286e-05
6.31374e-05
6.24828e-05
6.17983e-05
6.10493e-05
6.02739e-05
5.94377e-05
5.85742e-05
5.76583e-05
5.67105e-05
5.57209e-05
5.4693e-05
5.36365e-05
5.25334e-05
5.14149e-05
5.02421e-05
4.90667e-05
4.78299e-05
4.65931e-05
4.53078e-05
4.40132e-05
4.26862e-05
4.13401e-05
3.99754e-05
3.8584e-05
3.71859e-05
3.57552e-05
3.43246e-05
3.28633e-05
3.13991e-05
2.99166e-05
2.84238e-05
2.69216e-05
2.54041e-05
2.3883e-05
2.2342e-05
2.08011e-05
1.92355e-05
1.76692e-05
1.68741e-05
1.60751e-05
1.52761e-05
1.44772e-05
1.36604e-05
1.28402e-05
1.202e-05
1.11917e-05
1.03429e-05
9.49395e-06
8.64062e-06
7.75476e-06
6.86889e-06
5.96382e-06
5.03432e-06
4.09194e-06
3.1165e-06
2.11326e-06
1.60315e-06
1.07778e-06
5.44624e-07
0
)


113
(
0
2.13587e-06
4.14568e-06
6.03489e-06
7.82387e-06
9.52239e-06
1.11304e-05
1.26445e-05
1.4094e-05
1.54876e-05
1.6791e-05
1.80431e-05
1.92548e-05
2.03803e-05
2.14726e-05
2.25173e-05
2.35009e-05
2.44571e-05
2.53534e-05
2.62136e-05
2.70419e-05
2.78119e-05
2.85595e-05
2.92614e-05
2.99256e-05
3.05676e-05
3.11539e-05
3.17179e-05
3.22495e-05
3.27389e-05
3.32068e-05
3.36342e-05
3.40309e-05
3.4407e-05
3.47351e-05
3.50426e-05
3.53228e-05
3.55631e-05
3.5784e-05
3.59713e-05
3.61274e-05
3.62642e-05
3.63615e-05
3.64356e-05
3.64875e-05
3.65005e-05
3.65009e-05
3.64594e-05
3.64025e-05
3.63132e-05
3.62012e-05
3.60639e-05
3.58978e-05
3.57126e-05
3.54946e-05
3.52611e-05
3.49933e-05
3.47115e-05
3.43961e-05
3.40657e-05
3.37053e-05
3.33264e-05
3.29226e-05
3.24955e-05
3.20503e-05
3.15755e-05
3.10902e-05
3.0568e-05
3.00439e-05
2.94748e-05
2.89057e-05
2.82973e-05
2.76815e-05
2.70364e-05
2.63742e-05
2.56927e-05
2.49836e-05
2.42664e-05
2.35096e-05
2.27528e-05
2.19513e-05
2.11454e-05
2.03067e-05
1.94496e-05
1.8572e-05
1.7661e-05
1.67415e-05
1.57731e-05
1.48047e-05
1.37766e-05
1.27466e-05
1.22065e-05
1.16584e-05
1.11104e-05
1.05623e-05
9.9848e-06
9.40169e-06
8.81858e-06
8.22528e-06
7.60575e-06
6.98622e-06
6.36231e-06
5.70622e-06
5.05013e-06
4.37879e-06
3.68803e-06
2.98875e-06
2.26755e-06
1.53035e-06
1.15695e-06
7.75613e-07
3.90501e-07
0
)


113
(
0
1.65864e-07
3.27654e-07
4.8517e-07
6.38813e-07
7.88705e-07
9.34568e-07
1.07587e-06
1.2138e-06
1.34875e-06
1.47849e-06
1.60504e-06
1.72908e-06
1.84735e-06
1.96326e-06
2.07576e-06
2.18367e-06
2.28945e-06
2.39048e-06
2.48852e-06
2.58391e-06
2.67429e-06
2.76269e-06
2.84704e-06
2.92794e-06
3.0068e-06
3.08046e-06
3.15198e-06
3.22041e-06
3.28473e-06
3.34695e-06
3.40516e-06
3.4603e-06
3.51337e-06
3.56157e-06
3.60764e-06
3.65091e-06
3.69003e-06
3.72712e-06
3.76066e-06
3.7909e-06
3.81906e-06
3.84298e-06
3.86438e-06
3.88335e-06
3.89802e-06
3.9113e-06
3.91988e-06
3.92672e-06
3.92986e-06
3.93039e-06
3.92799e-06
3.9222e-06
3.91415e-06
3.90216e-06
3.88832e-06
3.87026e-06
3.85048e-06
3.82648e-06
3.8006e-06
3.77085e-06
3.73873e-06
3.70329e-06
3.6648e-06
3.62385e-06
3.57887e-06
3.53244e-06
3.48087e-06
3.42903e-06
3.37076e-06
3.31249e-06
3.2485e-06
3.18342e-06
3.11399e-06
3.042e-06
2.96713e-06
2.88811e-06
2.80786e-06
2.72166e-06
2.63545e-06
2.54256e-06
2.44901e-06
2.35069e-06
2.24969e-06
2.14583e-06
2.03732e-06
1.92768e-06
1.81166e-06
1.69563e-06
1.57242e-06
1.44899e-06
1.38456e-06
1.31926e-06
1.25397e-06
1.18867e-06
1.12055e-06
1.05189e-06
9.83226e-07
9.13701e-07
8.41959e-07
7.70217e-07
6.98148e-07
6.23685e-07
5.49223e-07
4.73753e-07
3.97003e-07
3.19746e-07
2.41188e-07
1.61757e-07
1.21781e-07
8.13977e-08
4.08289e-08
0
)

)


10
(

113
(
0
4.07545e-06
8.56558e-06
1.33647e-05
1.84568e-05
2.38832e-05
2.96952e-05
3.59277e-05
4.25706e-05
4.95399e-05
5.66884e-05
6.38562e-05
7.09324e-05
7.78653e-05
8.46503e-05
9.1329e-05
9.79522e-05
0.000104547
0.000111133
0.000117717
0.000124298
0.000130864
0.000137417
0.000143905
0.00015031
0.000156593
0.000162708
0.000168602
0.000174221
0.000179517
0.000184441
0.000188966
0.000193064
0.000196707
0.000199842
0.000202286
0.00020377
0.00020382
0.0002018
0.00019709
0.000189327
0.00017873
0.000166237
0.000152939
0.000139669
0.000126922
0.000114949
0.000103835
9.3663e-05
8.43752e-05
7.59071e-05
6.82282e-05
6.12923e-05
5.50589e-05
4.94889e-05
4.47218e-05
4.05773e-05
3.69606e-05
3.38205e-05
3.12545e-05
2.91082e-05
2.7251e-05
2.56913e-05
2.44177e-05
2.32643e-05
2.22416e-05
2.13151e-05
2.04169e-05
1.95479e-05
1.86745e-05
1.77985e-05
1.6896e-05
1.59854e-05
1.5054e-05
1.4116e-05
1.31715e-05
1.22332e-05
1.12972e-05
1.03874e-05
9.48381e-06
8.62479e-06
7.7805e-06
6.98527e-06
6.21985e-06
5.50183e-06
4.83173e-06
4.20019e-06
3.63579e-06
3.09378e-06
2.6372e-06
2.20415e-06
2.01495e-06
1.82575e-06
1.64831e-06
1.49218e-06
1.33604e-06
1.18878e-06
1.0599e-06
9.31017e-07
8.14063e-07
7.07273e-07
6.01155e-07
5.12065e-07
4.22975e-07
3.45659e-07
2.70472e-07
2.05761e-07
1.45133e-07
9.0474e-08
6.50851e-08
4.16422e-08
1.97125e-08
0
)


113
(
0
4.28492e-06
8.96397e-06
1.3963e-05
1.92791e-05
2.4917e-05
3.0864e-05
3.70893e-05
4.35429e-05
5.01667e-05
5.69046e-05
6.37056e-05
7.05292e-05
7.73462e-05
8.41369e-05
9.08826e-05
9.75745e-05
0.000104214
0.000110797
0.000117318
0.000123767
0.000130131
0.00013639
0.000142496
0.000148432
0.00015416
0.000159634
0.000164799
0.000169591
0.000173937
0.000177759
0.000180963
0.000183453
0.00018513
0.000185897
0.000185645
0.000184326
0.000181909
0.000178385
0.000173783
0.000168154
0.000161587
0.000154209
0.000146191
0.000137707
0.000128932
0.000120033
0.000111157
0.000102451
9.40618e-05
8.60692e-05
7.85455e-05
7.15261e-05
6.50265e-05
5.90485e-05
5.37346e-05
4.89536e-05
4.46351e-05
4.07426e-05
3.73821e-05
3.4433e-05
3.17811e-05
2.94485e-05
2.74695e-05
2.56625e-05
2.40553e-05
2.26566e-05
2.13431e-05
2.01616e-05
1.90557e-05
1.79936e-05
1.70032e-05
1.60266e-05
1.50829e-05
1.41532e-05
1.32373e-05
1.23386e-05
1.14466e-05
1.05807e-05
9.72039e-06
8.89649e-06
8.08454e-06
7.31235e-06
6.56456e-06
5.8556e-06
5.18642e-06
4.54927e-06
3.96958e-06
3.40905e-06
2.92456e-06
2.46208e-06
2.25645e-06
2.05081e-06
1.85689e-06
1.68416e-06
1.51143e-06
1.348e-06
1.20378e-06
1.05957e-06
9.28218e-07
8.07827e-07
6.8817e-07
5.87109e-07
4.86047e-07
3.98016e-07
3.12343e-07
2.3846e-07
1.68875e-07
1.05802e-07
7.65188e-08
4.94869e-08
2.42291e-08
0
)


113
(
0
4.90243e-06
9.952e-06
1.53195e-05
2.0899e-05
2.66964e-05
3.27082e-05
3.87987e-05
4.49789e-05
5.12328e-05
5.75207e-05
6.38352e-05
7.01632e-05
7.64775e-05
8.27509e-05
8.89525e-05
9.50457e-05
0.000101009
0.000106823
0.000112458
0.000117888
0.000123086
0.000128017
0.000132605
0.000136861
0.00014076
0.000144272
0.000147369
0.000150023
0.000152211
0.000153909
0.000155102
0.000155774
0.00015592
0.000155534
0.000154611
0.000153173
0.000151234
0.000148807
0.000145934
0.000142628
0.000138911
0.000134847
0.000130459
0.000125801
0.000120915
0.000115864
0.000110679
0.000105387
0.000100051
9.47158e-05
8.94266e-05
8.42109e-05
7.90935e-05
7.41007e-05
6.93046e-05
6.46997e-05
6.02778e-05
5.6038e-05
5.20582e-05
4.83172e-05
4.47658e-05
4.1434e-05
3.83903e-05
3.55087e-05
3.28254e-05
3.03987e-05
2.80935e-05
2.59977e-05
2.4065e-05
2.22266e-05
2.06075e-05
1.90464e-05
1.76322e-05
1.6302e-05
1.50544e-05
1.39089e-05
1.2803e-05
1.18028e-05
1.08206e-05
9.92843e-06
9.05572e-06
8.24789e-06
7.46919e-06
6.73684e-06
6.04342e-06
5.38133e-06
4.76914e-06
4.17359e-06
3.64114e-06
3.12762e-06
2.89291e-06
2.6582e-06
2.43349e-06
2.22687e-06
2.02025e-06
1.82189e-06
1.64063e-06
1.45937e-06
1.29055e-06
1.13232e-06
9.74921e-07
8.3839e-07
7.01858e-07
5.79815e-07
4.60399e-07
3.54691e-07
2.54799e-07
1.63676e-07
1.21119e-07
8.14815e-08
4.25068e-08
0
)


113
(
0
5.67279e-06
1.08594e-05
1.62068e-05
2.1691e-05
2.72609e-05
3.28731e-05
3.84946e-05
4.40994e-05
4.96651e-05
5.5171e-05
6.05981e-05
6.59819e-05
7.13263e-05
7.65288e-05
8.15013e-05
8.62686e-05
9.0833e-05
9.51465e-05
9.92355e-05
0.000103106
0.0001067
0.000110043
0.000113088
0.000115881
0.000118381
0.000120585
0.000122498
0.000124111
0.000125416
0.000126423
0.000127125
0.000127523
0.000127611
0.000127405
0.000126898
0.000126111
0.000125056
0.000123746
0.000122191
0.000120387
0.000118371
0.000116138
0.000113716
0.000111115
0.000108358
0.000105457
0.000102439
9.93073e-05
9.60718e-05
9.27643e-05
8.9406e-05
8.6004e-05
8.25721e-05
7.91337e-05
7.57036e-05
7.22909e-05
6.89021e-05
6.55431e-05
6.22428e-05
5.90123e-05
5.58419e-05
5.27448e-05
4.97571e-05
4.68375e-05
4.40036e-05
4.13018e-05
3.86683e-05
3.61597e-05
3.37599e-05
3.14231e-05
2.92608e-05
2.71512e-05
2.51783e-05
2.32965e-05
2.15042e-05
1.98344e-05
1.8212e-05
1.67374e-05
1.52893e-05
1.39836e-05
1.27123e-05
1.15556e-05
1.04469e-05
9.41482e-06
8.4442e-06
7.52308e-06
6.67769e-06
5.85754e-06
5.14157e-06
4.45077e-06
4.13448e-06
3.81819e-06
3.51476e-06
3.23459e-06
2.95443e-06
2.6845e-06
2.43574e-06
2.18699e-06
1.95289e-06
1.73127e-06
1.51055e-06
1.31238e-06
1.11421e-06
9.33302e-07
7.55532e-07
5.94602e-07
4.40151e-07
2.94201e-07
2.2335e-07
1.52649e-07
7.96369e-08
0
)


113
(
0
5.8301e-06
1.08441e-05
1.56574e-05
2.043e-05
2.51855e-05
2.99115e-05
3.45843e-05
3.91807e-05
4.36815e-05
4.8072e-05
5.23406e-05
5.64779e-05
6.04758e-05
6.43271e-05
6.80138e-05
7.15184e-05
7.48554e-05
7.80202e-05
8.10085e-05
8.38161e-05
8.6439e-05
8.88734e-05
9.10873e-05
9.31587e-05
9.51796e-05
9.70102e-05
9.85676e-05
9.98718e-05
0.000100964
0.000101832
0.000102448
0.000102939
0.000103235
0.000103333
0.000103203
0.000102944
0.000102513
0.000101906
0.000101157
0.000100258
9.9212e-05
9.80241e-05
9.67208e-05
9.52974e-05
9.37553e-05
9.21118e-05
9.03666e-05
8.85338e-05
8.66133e-05
8.46104e-05
8.2542e-05
8.04141e-05
7.82347e-05
7.60162e-05
7.37445e-05
7.14407e-05
6.91143e-05
6.67702e-05
6.44075e-05
6.20397e-05
5.96691e-05
5.72962e-05
5.49346e-05
5.25901e-05
5.02706e-05
4.79778e-05
4.57077e-05
4.34883e-05
4.12856e-05
3.90926e-05
3.69778e-05
3.48852e-05
3.2849e-05
3.08479e-05
2.88813e-05
2.70067e-05
2.51678e-05
2.34442e-05
2.17406e-05
2.01399e-05
1.85652e-05
1.70777e-05
1.56338e-05
1.42594e-05
1.29465e-05
1.16832e-05
1.05002e-05
9.3441e-06
8.28888e-06
7.26263e-06
6.78317e-06
6.30372e-06
5.84e-06
5.40473e-06
4.96947e-06
4.54742e-06
4.15268e-06
3.75795e-06
3.38301e-06
3.02492e-06
2.66805e-06
2.34201e-06
2.01597e-06
1.71206e-06
1.41215e-06
1.13006e-06
8.52399e-07
5.78667e-07
4.41476e-07
3.00705e-07
1.54904e-07
0
)


113
(
0
5.1462e-06
9.56126e-06
1.36031e-05
1.74547e-05
2.1178e-05
2.48022e-05
2.8339e-05
3.17898e-05
3.51513e-05
3.84187e-05
4.15867e-05
4.46505e-05
4.76055e-05
5.04481e-05
5.31661e-05
5.5749e-05
5.82096e-05
6.05466e-05
6.27587e-05
6.48448e-05
6.68041e-05
6.86355e-05
7.03197e-05
7.18776e-05
7.33098e-05
7.46166e-05
7.57989e-05
7.68576e-05
7.77938e-05
7.86089e-05
7.93047e-05
7.98829e-05
8.03406e-05
8.05868e-05
8.08181e-05
8.09415e-05
8.09607e-05
8.08787e-05
8.06984e-05
8.04233e-05
8.00538e-05
7.95949e-05
7.91973e-05
7.96026e-05
7.9146e-05
7.84928e-05
7.7733e-05
7.68008e-05
7.5752e-05
7.45935e-05
7.33267e-05
7.19657e-05
7.05194e-05
6.89876e-05
6.73435e-05
6.56316e-05
6.35809e-05
6.12781e-05
5.97092e-05
5.81091e-05
5.64867e-05
5.48405e-05
5.31682e-05
5.14835e-05
4.97844e-05
4.81417e-05
4.64823e-05
4.4745e-05
4.30086e-05
4.12729e-05
3.95456e-05
3.78227e-05
3.61117e-05
3.44126e-05
3.27251e-05
3.10598e-05
2.94031e-05
2.77809e-05
2.61655e-05
2.45913e-05
2.30289e-05
2.15055e-05
2.00037e-05
1.85365e-05
1.71029e-05
1.56964e-05
1.43383e-05
1.29963e-05
1.17209e-05
1.04664e-05
9.86332e-06
9.26028e-06
8.66938e-06
8.10044e-06
7.53151e-06
6.97315e-06
6.43664e-06
5.90014e-06
5.37912e-06
4.8713e-06
4.36434e-06
3.87898e-06
3.39363e-06
2.92001e-06
2.44846e-06
1.98042e-06
1.50907e-06
1.02956e-06
7.85093e-07
5.32335e-07
2.71845e-07
0
)


113
(
0
3.95985e-06
7.44338e-06
1.05984e-05
1.35431e-05
1.63241e-05
1.89733e-05
2.15135e-05
2.39597e-05
2.63219e-05
2.8606e-05
3.08154e-05
3.29522e-05
3.50171e-05
3.70104e-05
3.89266e-05
4.07608e-05
4.25216e-05
4.42086e-05
4.58214e-05
4.73595e-05
4.88225e-05
5.02101e-05
5.11703e-05
5.2306e-05
5.3404e-05
5.44236e-05
5.53652e-05
5.6229e-05
5.70155e-05
5.77254e-05
5.83592e-05
5.89178e-05
5.94021e-05
5.98131e-05
6.01502e-05
6.04164e-05
6.06136e-05
6.07429e-05
6.08057e-05
6.08035e-05
6.07355e-05
6.06044e-05
6.04125e-05
6.01614e-05
5.98528e-05
5.94882e-05
5.90695e-05
5.85945e-05
5.80659e-05
5.74878e-05
5.68618e-05
5.61901e-05
5.54751e-05
5.4719e-05
5.39126e-05
5.30662e-05
5.21848e-05
5.12706e-05
5.03144e-05
4.93233e-05
4.83058e-05
4.72588e-05
4.61749e-05
4.5071e-05
4.39427e-05
4.27837e-05
4.16103e-05
4.04122e-05
3.91953e-05
3.79674e-05
3.67146e-05
3.54553e-05
3.41797e-05
3.28955e-05
3.16028e-05
3.03012e-05
2.89962e-05
2.77766e-05
2.65562e-05
2.52213e-05
2.38884e-05
2.25621e-05
2.12409e-05
1.99278e-05
1.86245e-05
1.73292e-05
1.60499e-05
1.47761e-05
1.3526e-05
1.22833e-05
1.16707e-05
1.1058e-05
1.04493e-05
9.84777e-06
9.24624e-06
8.64741e-06
8.05415e-06
7.46089e-06
6.86951e-06
6.27974e-06
5.68985e-06
5.09707e-06
4.50429e-06
3.90263e-06
3.29928e-06
2.67865e-06
2.0465e-06
1.39485e-06
1.06102e-06
7.16547e-07
3.63742e-07
0
)


113
(
0
2.61552e-06
4.99515e-06
7.17853e-06
9.21666e-06
1.11289e-05
1.2931e-05
1.46373e-05
1.62597e-05
1.78077e-05
1.92887e-05
2.07083e-05
2.20709e-05
2.33797e-05
2.46375e-05
2.58426e-05
2.69944e-05
2.80999e-05
2.91602e-05
3.01757e-05
3.11469e-05
3.20741e-05
3.29574e-05
3.37905e-05
3.45806e-05
3.53279e-05
3.60324e-05
3.66943e-05
3.73136e-05
3.78903e-05
3.84248e-05
3.8917e-05
3.93672e-05
3.97757e-05
4.01426e-05
4.04674e-05
4.07514e-05
4.09954e-05
4.11996e-05
4.13647e-05
4.14909e-05
4.15776e-05
4.16259e-05
4.16368e-05
4.1611e-05
4.1549e-05
4.14516e-05
4.13193e-05
4.11503e-05
4.0946e-05
4.07085e-05
4.04384e-05
4.01369e-05
3.98049e-05
3.94439e-05
3.90465e-05
3.86194e-05
3.81659e-05
3.76874e-05
3.7176e-05
3.66364e-05
3.60752e-05
3.54892e-05
3.48712e-05
3.42351e-05
3.35768e-05
3.28889e-05
3.21868e-05
3.14593e-05
3.07111e-05
2.99508e-05
2.91601e-05
2.83608e-05
2.7539e-05
2.67031e-05
2.58533e-05
2.49847e-05
2.41087e-05
2.32109e-05
2.23093e-05
2.13874e-05
2.0461e-05
1.95193e-05
1.85705e-05
1.76105e-05
1.66411e-05
1.5664e-05
1.46742e-05
1.36802e-05
1.26684e-05
1.16506e-05
1.11344e-05
1.06183e-05
1.00978e-05
9.56948e-06
9.04114e-06
8.50789e-06
7.9645e-06
7.42111e-06
6.86777e-06
6.30596e-06
5.74333e-06
5.15965e-06
4.57598e-06
3.97127e-06
3.3627e-06
2.72831e-06
2.08085e-06
1.41291e-06
1.07143e-06
7.21102e-07
3.64448e-07
0
)


113
(
0
1.30125e-06
2.52547e-06
3.67702e-06
4.76898e-06
5.80469e-06
6.78738e-06
7.72081e-06
8.6088e-06
9.45488e-06
1.02621e-05
1.10332e-05
1.17704e-05
1.24754e-05
1.315e-05
1.37936e-05
1.44061e-05
1.49921e-05
1.55527e-05
1.60885e-05
1.66003e-05
1.70886e-05
1.7554e-05
1.79937e-05
1.84118e-05
1.88087e-05
1.91847e-05
1.95403e-05
1.98755e-05
2.01908e-05
2.04863e-05
2.07624e-05
2.10191e-05
2.12568e-05
2.14756e-05
2.16753e-05
2.18565e-05
2.20197e-05
2.21649e-05
2.22924e-05
2.24023e-05
2.24942e-05
2.25686e-05
2.26258e-05
2.26662e-05
2.26898e-05
2.26969e-05
2.26876e-05
2.2661e-05
2.26175e-05
2.25581e-05
2.24828e-05
2.2392e-05
2.22861e-05
2.21657e-05
2.20268e-05
2.18726e-05
2.17045e-05
2.15232e-05
2.13242e-05
2.11098e-05
2.08832e-05
2.06426e-05
2.03834e-05
2.01134e-05
1.983e-05
1.95281e-05
1.9217e-05
1.88893e-05
1.85473e-05
1.81969e-05
1.78243e-05
1.74448e-05
1.70477e-05
1.66385e-05
1.62174e-05
1.57785e-05
1.53327e-05
1.48639e-05
1.43908e-05
1.38936e-05
1.33901e-05
1.28659e-05
1.23307e-05
1.17783e-05
1.12096e-05
1.06277e-05
1.00225e-05
9.40948e-06
8.76398e-06
8.10799e-06
7.76775e-06
7.4275e-06
7.08076e-06
6.72225e-06
6.36374e-06
5.99903e-06
5.62149e-06
5.24396e-06
4.85591e-06
4.45892e-06
4.06119e-06
3.64483e-06
3.22848e-06
2.79631e-06
2.36126e-06
1.90941e-06
1.45002e-06
9.79268e-07
7.39979e-07
4.96398e-07
2.49918e-07
0
)


113
(
0
1.02482e-07
2.02414e-07
2.99697e-07
3.94616e-07
4.87129e-07
5.77197e-07
6.64827e-07
7.50051e-07
8.32914e-07
9.13463e-07
9.91741e-07
1.06779e-06
1.14164e-06
1.21331e-06
1.28268e-06
1.34965e-06
1.41451e-06
1.47728e-06
1.53797e-06
1.59659e-06
1.65315e-06
1.70766e-06
1.75981e-06
1.80996e-06
1.85811e-06
1.90426e-06
1.94843e-06
1.99062e-06
2.03084e-06
2.06908e-06
2.10537e-06
2.13971e-06
2.1721e-06
2.20254e-06
2.23102e-06
2.25757e-06
2.28223e-06
2.30499e-06
2.32587e-06
2.34488e-06
2.36196e-06
2.37715e-06
2.39048e-06
2.40196e-06
2.4116e-06
2.41941e-06
2.4254e-06
2.42944e-06
2.43156e-06
2.43187e-06
2.43035e-06
2.42703e-06
2.42196e-06
2.41517e-06
2.40617e-06
2.39534e-06
2.38282e-06
2.36868e-06
2.35236e-06
2.33409e-06
2.31428e-06
2.2927e-06
2.2687e-06
2.24329e-06
2.21611e-06
2.18647e-06
2.15558e-06
2.12245e-06
2.08733e-06
2.05107e-06
2.01169e-06
1.97134e-06
1.92851e-06
1.88394e-06
1.83767e-06
1.78886e-06
1.73906e-06
1.68597e-06
1.63227e-06
1.57515e-06
1.51717e-06
1.45631e-06
1.39398e-06
1.32932e-06
1.26256e-06
1.1941e-06
1.12281e-06
1.05057e-06
9.7464e-07
8.97612e-07
8.57818e-07
8.18025e-07
7.77612e-07
7.36079e-07
6.94546e-07
6.52478e-07
6.09306e-07
5.66133e-07
5.22144e-07
4.77459e-07
4.32722e-07
3.86679e-07
3.40636e-07
2.93585e-07
2.46352e-07
1.98139e-07
1.49518e-07
1.00296e-07
7.54857e-08
5.0467e-08
2.53123e-08
0
)

)


10
(

113
(
0
3.44841e-06
7.34308e-06
1.15779e-05
1.61824e-05
2.12935e-05
2.6876e-05
3.28962e-05
3.92568e-05
4.58209e-05
5.24667e-05
5.89667e-05
6.525e-05
7.13692e-05
7.70615e-05
8.30667e-05
8.92e-05
9.50846e-05
0.000100667
0.000107333
0.000112846
0.0001185
0.000124667
0.000131077
0.000136462
0.00014225
0.000148083
0.000153917
0.0001595
0.000164583
0.000170417
0.000175909
0.000180333
0.0001845
0.000188091
0.000190818
0.000193
0.000192727
0.00019
0.000184545
0.000176636
0.0001654
0.000154273
0.0001419
0.000130364
0.00012
0.00011
0.000100733
9.27667e-05
8.56e-05
7.99077e-05
7.44667e-05
6.96846e-05
6.56429e-05
6.23571e-05
5.94714e-05
5.68571e-05
5.45e-05
5.25e-05
5.06875e-05
4.90625e-05
4.74375e-05
4.58312e-05
4.42688e-05
4.26882e-05
4.11e-05
3.96e-05
3.80889e-05
3.65333e-05
3.49778e-05
3.34222e-05
3.18842e-05
3.03579e-05
2.88316e-05
2.73053e-05
2.584e-05
2.439e-05
2.298e-05
2.158e-05
2.022e-05
1.887e-05
1.756e-05
1.626e-05
1.49895e-05
1.37263e-05
1.261e-05
1.151e-05
1.042e-05
9.34111e-06
8.35222e-06
7.38471e-06
6.92588e-06
6.46706e-06
6.01562e-06
5.59375e-06
5.17188e-06
4.75e-06
4.36667e-06
3.98333e-06
3.6e-06
3.20833e-06
2.81667e-06
2.45273e-06
2.10727e-06
1.76667e-06
1.43333e-06
1.11186e-06
8.08333e-07
5.45e-07
4.1125e-07
2.615e-07
1.2825e-07
0
)


113
(
0
3.69523e-06
7.82411e-06
1.23231e-05
1.71937e-05
2.24331e-05
2.80032e-05
3.38388e-05
3.98627e-05
4.60025e-05
5.21963e-05
5.8402e-05
6.45906e-05
7.07437e-05
7.68467e-05
8.29025e-05
8.89197e-05
9.49027e-05
0.000100857
0.000106778
0.000112658
0.000118502
0.000124294
0.000130016
0.00013564
0.000141118
0.000146417
0.000151487
0.000156269
0.000160699
0.000164624
0.000167951
0.00017056
0.000172415
0.000173443
0.000173491
0.000172529
0.00017053
0.000167497
0.000163363
0.000158319
0.000152531
0.000146055
0.000139116
0.000131841
0.000124427
0.000117006
0.000109719
0.000102671
9.59644e-05
8.97881e-05
8.402e-05
7.87299e-05
7.38699e-05
6.95183e-05
6.56434e-05
6.21002e-05
5.88756e-05
5.60978e-05
5.35118e-05
5.11175e-05
4.89888e-05
4.69523e-05
4.5062e-05
4.32739e-05
4.15295e-05
3.98832e-05
3.82496e-05
3.66664e-05
3.50994e-05
3.35565e-05
3.20326e-05
3.05216e-05
2.90328e-05
2.75536e-05
2.61034e-05
2.46605e-05
2.3253e-05
2.18544e-05
2.04967e-05
1.91493e-05
1.78488e-05
1.65601e-05
1.5323e-05
1.40987e-05
1.29378e-05
1.17839e-05
1.06956e-05
9.62181e-06
8.6128e-06
7.6249e-06
7.15557e-06
6.68624e-06
6.2234e-06
5.7865e-06
5.34961e-06
4.91271e-06
4.50519e-06
4.09768e-06
3.69016e-06
3.30793e-06
2.9257e-06
2.55734e-06
2.19822e-06
1.84795e-06
1.51096e-06
1.18587e-06
8.71158e-07