/*--------------------------------*- C++ -*----------------------------------*\
| =========                 |                                                 |
| \\      /  F ield         | OpenFOAM: The Open Source CFD Toolbox           |
|  \\    /   O peration     | Version:  2.3.0                                 |
|   \\  /    A nd           | Web:      www.OpenFOAM.org                      |
|    \\/     M anipulation  |                                                 |
\*---------------------------------------------------------------------------*/
FoamFile
{
    version     2.0;
    format      ascii;
    class       dictionary;
    location    "constant";
    object      O2;
}
// * * * * * * * * * * * * * * * * * * * * * * * * * * * * * * * * * * * * * //

O2_table
13
(

10
(

113
(
0.233
0.226375
0.219133
0.21197
0.204711
0.196929
0.189786
0.181854
0.174055
0.16649
0.159205
0.151692
0.144
0.136453
0.128689
0.120615
0.11262
0.104694
0.097011
0.0892055
0.0812914
0.0734756
0.0657259
0.0581333
0.0507383
0.0434671
0.0368211
0.0305062
0.0246677
0.0196258
0.0150138
0.0112701
0.0081795
0.00552579
0.00381509
0.00242361
0.00145525
0.000904367
0.000498582
0.000285924
0.000159922
7.94242e-05
4.71261e-05
2.57114e-05
1.47533e-05
1.06257e-05
8.29374e-06
9.96413e-06
1.33659e-05
2.0447e-05
3.18406e-05
4.80973e-05
7.41e-05
0.0001066
0.000158766
0.000220188
0.000314624
0.000422545
0.000581667
0.000763792
0.00101811
0.00131669
0.00170542
0.00217738
0.00275676
0.00351139
0.00435835
0.00553266
0.00673345
0.00856982
0.0104062
0.0129805
0.0156955
0.0192257
0.0232347
0.0277415
0.0329647
0.0383606
0.0445996
0.0508385
0.0576137
0.0644419
0.0714876
0.0786558
0.0858776
0.093187
0.100473
0.107629
0.114785
0.121962
0.129139
0.132714
0.136286
0.139857
0.143429
0.147067
0.150719
0.154371
0.157975
0.161456
0.164937
0.168403
0.171761
0.175119
0.178426
0.181667
0.184864
0.187951
0.190768
0.192114
0.193543
0.195619
0.197
)


113
(
0.233
0.226152
0.218996
0.21176
0.204387
0.196926
0.189403
0.181836
0.174248
0.166644
0.159014
0.151364
0.143696
0.135987
0.128266
0.120527
0.112794
0.105074
0.0974108
0.0898258
0.0823098
0.0750153
0.0678377
0.0609232
0.0543093
0.0478763
0.0420096
0.0364165
0.031217
0.0265965
0.0222762
0.0185409
0.0152473
0.0122493
0.00990337
0.00780904
0.00604819
0.00470272
0.00353479
0.00264872
0.00196855
0.00140655
0.00103281
0.000736421
0.000514346
0.000379877
0.000270021
0.000224308
0.000193762
0.000195448
0.000215797
0.000257192
0.000324331
0.000408632
0.000531391
0.000672247
0.000871092
0.00109362
0.00139991
0.00174382
0.00219871
0.00272162
0.00337991
0.00416316
0.00508562
0.0062352
0.0074937
0.00913835
0.0108085
0.013091
0.0153735
0.0183031
0.021356
0.0249466
0.028853
0.0331193
0.0379037
0.0428251
0.0484159
0.0540067
0.0601971
0.0664467
0.0729974
0.0797175
0.0865419
0.0935366
0.100551
0.107674
0.114797
0.121958
0.129121
0.132698
0.136273
0.139848
0.143423
0.146968
0.150508
0.154048
0.157568
0.161037
0.164507
0.167964
0.171328
0.174692
0.178001
0.181238
0.184447
0.18758
0.190687
0.192233
0.193777
0.195327
0.197
)


113
(
0.233
0.225822
0.2187
0.211389
0.204006
0.196552
0.188918
0.181417
0.173931
0.166449
0.159022
0.151606
0.1442
0.136867
0.129584
0.122374
0.115297
0.108291
0.101467
0.0947889
0.0882413
0.0819819
0.0758478
0.0699791
0.0643635
0.0588987
0.0538444
0.0489702
0.0443549
0.0400975
0.0360229
0.0322997
0.0288444
0.0255688
0.0227073
0.0200168
0.0175531
0.0154062
0.0134088
0.0116647
0.0101316
0.00872728
0.00757286
0.00655378
0.00566472
0.00496884
0.00433561
0.00391162
0.00354969
0.00331963
0.00318096
0.00314535
0.00322197
0.00337342
0.0036569
0.0040025
0.0044987
0.00505642
0.00577933
0.00657648
0.00754661
0.00862277
0.00986747
0.0112677
0.0128109
0.0145871
0.0164577
0.0186634
0.0208884
0.0235765
0.0262646
0.0293901
0.0325989
0.0361566
0.0399192
0.0439123
0.048237
0.0526551
0.057529
0.062403
0.0677568
0.0731581
0.0788506
0.084707
0.0907097
0.096951
0.103236
0.109767
0.116297
0.122996
0.129699
0.133092
0.136498
0.139904
0.143309
0.146724
0.15014
0.153555
0.15698
0.160426
0.163872
0.167308
0.170664
0.17402
0.177355
0.180661
0.183952
0.187202
0.190398
0.19198
0.193544
0.195152
0.197
)


113
(
0.233
0.225287
0.218333
0.211292
0.204156
0.196983
0.189816
0.182695
0.175621
0.168595
0.161672
0.154826
0.148041
0.141176
0.134468
0.127988
0.121707
0.115522
0.109556
0.103772
0.0981489
0.0927571
0.0874515
0.0823182
0.0774016
0.072613
0.0681142
0.0637345
0.0595261
0.0555684
0.0517376
0.0481485
0.0447494
0.0414777
0.0384985
0.0356469
0.0329647
0.0305315
0.0282186
0.0261124
0.0241994
0.0224053
0.0208459
0.0194303
0.0181528
0.0170995
0.0161205
0.015397
0.0147591
0.0143031
0.013985
0.0138223
0.0138244
0.0139364
0.0142479
0.0146532
0.0152714
0.0159765
0.0168911
0.0178998
0.0191126
0.0204505
0.0219609
0.0236305
0.0254336
0.0274544
0.0295554
0.0319409
0.0343415
0.0371061
0.0398707
0.0429588
0.0461084
0.0495101
0.0530599
0.0567703
0.060712
0.0647184
0.0690409
0.0733633
0.0780727
0.0828203
0.0877657
0.0928222
0.0980617
0.1036
0.109187
0.115057
0.120927
0.126936
0.132948
0.136028
0.139131
0.142233
0.145336
0.148497
0.151668
0.154839
0.158022
0.161235
0.164447
0.167661
0.170882
0.174103
0.17731
0.180498
0.183674
0.186817
0.189978
0.191569
0.193239
0.195006
0.197
)


113
(
0.233
0.22512
0.218314
0.211792
0.20532
0.198855
0.192402
0.185993
0.179639
0.173339
0.167161
0.161071
0.155051
0.149209
0.143447
0.137798
0.132315
0.126909
0.121684
0.116577
0.111577
0.106784
0.102077
0.0975438
0.0930182
0.0885016
0.0842358
0.0801253
0.0762385
0.0725796
0.0690341
0.0657008
0.0625337
0.0594782
0.056691
0.0540126
0.0514785
0.049165
0.0469581
0.0449341
0.0430759
0.0413214
0.0397804
0.0383644
0.0370684
0.0359935
0.0349874
0.0341976
0.033502
0.0330064
0.032638
0.032413
0.0323487
0.0323915
0.032628
0.0329556
0.0334931
0.0341163
0.0349473
0.0358717
0.0369867
0.0382185
0.0396145
0.0411621
0.0428329
0.0447044
0.0466377
0.0487897
0.0509572
0.0534955
0.0560338
0.0589246
0.0618825
0.0650151
0.0682505
0.0716776
0.0753806
0.0791071
0.0829482
0.0867893
0.0909183
0.0950759
0.0994296
0.103894
0.108469
0.113224
0.11802
0.123047
0.128074
0.133338
0.13861
0.141324
0.144063
0.146802
0.149541
0.152345
0.155161
0.157977
0.160805
0.163666
0.166526
0.169389
0.172266
0.175143
0.17803
0.18093
0.183852
0.186834
0.189934
0.191526
0.193235
0.195035
0.197
)


113
(
0.233
0.225558
0.21909
0.213116
0.207372
0.201761
0.19624
0.190794
0.185403
0.18006
0.174813
0.169635
0.164511
0.159531
0.154616
0.149796
0.145114
0.140497
0.136032
0.131666
0.127389
0.123285
0.119252
0.115363
0.1116
0.107911
0.104417
0.101004
0.0977082
0.0945713
0.0915157
0.0886168
0.085839
0.0831439
0.0807055
0.0783251
0.0760215
0.0738843
0.071829
0.0699158
0.0681354
0.0664379
0.0649097
0.0628603
0.0603102
0.0585638
0.0570172
0.0558474
0.0548226
0.0541058
0.0535932
0.0533108
0.0532723
0.0533965
0.0538203
0.0543853
0.0563571
0.0589035
0.0602078
0.0609542
0.0618679
0.0628842
0.0640425
0.0653319
0.066726
0.0682908
0.0698755
0.0715307
0.0732058
0.0753602
0.0775146
0.0798928
0.0823136
0.0849025
0.0875902
0.0903873
0.0933419
0.0963417
0.0995628
0.102784
0.106245
0.10973
0.11338
0.117122
0.120958
0.124946
0.128969
0.133184
0.1374
0.141809
0.146224
0.148493
0.150783
0.153072
0.155362
0.157706
0.16006
0.162414
0.164784
0.167195
0.169606
0.172026
0.174508
0.17699
0.179521
0.182116
0.184759
0.187526
0.190439
0.191943
0.193551
0.195223
0.197
)


113
(
0.233
0.226567
0.220825
0.21556
0.210589
0.205829
0.20124
0.196792
0.19243
0.188139
0.183957
0.179836
0.175765
0.171805
0.167892
0.164048
0.160301
0.1566
0.153006
0.149481
0.146018
0.142678
0.139473
0.136614
0.133683
0.130715
0.127898
0.125146
0.122485
0.119951
0.117481
0.115137
0.112891
0.11071
0.108686
0.106732
0.104869
0.103144
0.101486
0.0999465
0.0985186
0.0971605
0.0959465
0.0948187
0.0937738
0.0928764
0.0920271
0.0913397
0.0907125
0.0902133
0.0898046
0.0894978
0.0893085
0.0891975
0.0892231
0.089313
0.0895488
0.0898443
0.0902849
0.0907907
0.091429
0.0921486
0.0929807
0.0939168
0.0949359
0.0960904
0.0972932
0.098667
0.10005
0.101643
0.103236
0.105013
0.106825
0.108774
0.110804
0.112921
0.115165
0.117387
0.119504
0.121621
0.124304
0.127043
0.129899
0.132821
0.135808
0.138903
0.142022
0.14528
0.148538
0.151944
0.155355
0.157117
0.158896
0.160676
0.162456
0.164302
0.166161
0.168019
0.169904
0.171856
0.173808
0.175774
0.177846
0.179918
0.182056
0.184279
0.186551
0.18895
0.191468
0.192764
0.194131
0.195536
0.197
)


113
(
0.233
0.228066
0.223521
0.219302
0.215322
0.211538
0.207933
0.204494
0.201161
0.197918
0.194809
0.191774
0.188795
0.185936
0.183123
0.180375
0.177712
0.175088
0.17255
0.170067
0.167631
0.165287
0.162979
0.160746
0.158579
0.15645
0.154422
0.152436
0.150512
0.148671
0.146873
0.145159
0.14351
0.141904
0.140404
0.138951
0.137559
0.13626
0.135008
0.133835
0.132739
0.13169
0.13074
0.129849
0.129015
0.128282
0.127583
0.126995
0.126449
0.125992
0.125597
0.125273
0.12503
0.124842
0.124748
0.124699
0.124751
0.124844
0.125038
0.125278
0.125609
0.125996
0.126461
0.126998
0.127591
0.128279
0.128999
0.129836
0.13068
0.131667
0.132655
0.133767
0.134904
0.136133
0.137416
0.13876
0.140189
0.141643
0.143216
0.14479
0.146494
0.148211
0.150019
0.151879
0.153793
0.155795
0.15782
0.159968
0.162117
0.164414
0.166715
0.167929
0.169163
0.170397
0.17163
0.172942
0.174268
0.175594
0.176949
0.17838
0.17981
0.181255
0.182802
0.18435
0.185952
0.187625
0.189332
0.191128
0.192996
0.193952
0.194946
0.195959
0.197
)


113
(
0.233
0.229999
0.22715
0.224445
0.221859
0.21938
0.217008
0.214745
0.212557
0.210433
0.208414
0.206452
0.204537
0.202719
0.200939
0.199212
0.197553
0.195926
0.194365
0.192844
0.191359
0.189938
0.188543
0.187199
0.185897
0.18462
0.183406
0.182217
0.181065
0.179961
0.178882
0.17785
0.176854
0.175881
0.174966
0.174075
0.173216
0.172406
0.17162
0.170874
0.170168
0.169485
0.168853
0.16825
0.167675
0.167151
0.166644
0.166192
0.165761
0.165373
0.165017
0.164695
0.164414
0.16416
0.163952
0.163767
0.163631
0.163517
0.163452
0.16341
0.163414
0.163446
0.163517
0.163625
0.163761
0.163946
0.164147
0.16441
0.164675
0.165016
0.165358
0.165766
0.166188
0.166662
0.167165
0.167704
0.168292
0.168894
0.169569
0.170245
0.171003
0.171769
0.172597
0.173458
0.174359
0.175322
0.176301
0.177371
0.178441
0.179622
0.180806
0.181444
0.182096
0.182749
0.183402
0.184107
0.184823
0.185539
0.186272
0.187053
0.187833
0.188621
0.189465
0.190309
0.191179
0.192083
0.193001
0.193957
0.19494
0.19544
0.195953
0.196472
0.197
)


113
(
0.233
0.232377
0.231763
0.231156
0.230556
0.229964
0.229379
0.228802
0.228232
0.227667
0.227112
0.226562
0.226017
0.225483
0.224953
0.224428
0.223912
0.2234
0.222896
0.222397
0.221903
0.221418
0.220936
0.220461
0.219991
0.219525
0.219068
0.218615
0.218166
0.217724
0.217286
0.216854
0.216427
0.216004
0.215588
0.215175
0.214767
0.214366
0.213967
0.213574
0.213186
0.212801
0.212422
0.212048
0.211676
0.211311
0.210948
0.210592
0.210238
0.20989
0.209545
0.209204
0.208868
0.208535
0.208207
0.207882
0.207562
0.207245
0.206933
0.206624
0.206319
0.206018
0.20572
0.205427
0.205136
0.204851
0.204567
0.204289
0.204012
0.203742
0.203472
0.203209
0.202947
0.20269
0.202436
0.202185
0.201938
0.201693
0.201454
0.201215
0.200983
0.200752
0.200525
0.200302
0.200081
0.199865
0.199649
0.19944
0.199232
0.199029
0.198827
0.198729
0.198631
0.198534
0.198436
0.198341
0.198246
0.198151
0.198058
0.197966
0.197874
0.197782
0.197693
0.197603
0.197514
0.197427
0.19734
0.197254
0.197168
0.197126
0.197084
0.197042
0.197
)

)


10
(

113
(
0.23293
0.226506
0.219565
0.212425
0.205181
0.197862
0.190491
0.183091
0.175652
0.16819
0.160684
0.153141
0.145566
0.137958
0.130325
0.122662
0.114981
0.107318
0.0996802
0.0920882
0.0845727
0.0771625
0.0698895
0.0628389
0.0560238
0.0494789
0.0432509
0.0373742
0.0318795
0.0267998
0.0221618
0.017983
0.0142744
0.0110487
0.00830674
0.00605543
0.0042623
0.00289355
0.00189601
0.00120716
0.000757452
0.000487458
0.000339824
0.000277312
0.000279586
0.000338435
0.000453267
0.000627981
0.000875242
0.00120616
0.00162988
0.00216193
0.00281797
0.00361424
0.00456575
0.00575198
0.00717011
0.00882183
0.0107139
0.0129628
0.0155478
0.0183994
0.0215595
0.025111
0.0288677
0.0328697
0.0371386
0.041519
0.046075
0.0507315
0.0554463
0.0602518
0.0650743
0.0699371
0.0748111
0.0796961
0.0845832
0.0894712
0.0943524
0.0992318
0.104098
0.108962
0.113818
0.118667
0.123503
0.128332
0.133154
0.137963
0.142767
0.147546
0.152317
0.154693
0.15707
0.159437
0.161786
0.164136
0.166478
0.168804
0.17113
0.173435
0.175721
0.178005
0.180247
0.182488
0.184682
0.186867
0.188978
0.191048
0.19305
0.194023
0.194954
0.195833
0.19662
)


113
(
0.23293
0.226322
0.219346
0.212237
0.205017
0.197715
0.190355
0.182948
0.175503
0.168024
0.160515
0.152982
0.145432
0.137872
0.130311
0.122764
0.115253
0.107795
0.100411
0.0931242
0.0859593
0.0789436
0.0721066
0.0655151
0.0591677
0.0530922
0.047315
0.0418588
0.0367459
0.0319943
0.0276157
0.0236217
0.0200131
0.0167884
0.013943
0.0114669
0.00933871
0.00753361
0.00602513
0.0047907
0.00381063
0.00305523
0.00250218
0.00213365
0.00192449
0.00186077
0.0019339
0.00213912
0.00248152
0.00296224
0.00357908
0.00434049
0.00525363
0.00632572
0.00756267
0.00902852
0.0107009
0.0125695
0.0146321
0.0169674
0.0195485
0.0223235
0.025322
0.0286122
0.0320635
0.0357106
0.0396029
0.0436071
0.0477999
0.0521266
0.0565309
0.0610947
0.0656951
0.070386
0.0751179
0.07989
0.0846969
0.0895173
0.0943593
0.099204
0.104055
0.108905
0.113751
0.118592
0.123427
0.128253
0.133071
0.137873
0.14267
0.147439
0.152198
0.154566
0.156933
0.159292
0.161637
0.163981
0.166317
0.168632
0.170948
0.173244
0.175523
0.1778
0.180033
0.182266
0.184451
0.186628
0.188738
0.190822
0.192851
0.193839
0.194794
0.195711
0.19662
)


113
(
0.23293
0.225947
0.219
0.211859
0.204639
0.197327
0.189914
0.18256
0.175223
0.167901
0.160621
0.153372
0.146151
0.138976
0.131864
0.124836
0.117921
0.111123
0.104456
0.097936
0.0915779
0.085396
0.0794056
0.073653
0.0681193
0.0628143
0.0577484
0.0529297
0.048365
0.044061
0.0400226
0.0362513
0.0327481
0.0295175
0.0265508
0.0238586
0.0214276
0.0192485
0.0173211
0.0156355
0.0141867
0.0129817
0.0120024
0.011239
0.0106982
0.0103583
0.0102206
0.0102844
0.0105494
0.0110198
0.0116749
0.0125139
0.0135345
0.0147315
0.0160968
0.0176771
0.0194353
0.0213539
0.0234256
0.0257034
0.0281591
0.0307534
0.0335056
0.0364647
0.039541
0.0427611
0.0461704
0.0496711
0.0533311
0.0571185
0.0609799
0.0650199
0.0691086
0.0733214
0.0776064
0.0819624
0.0864067
0.0908852
0.0954516
0.100032
0.104681
0.109342
0.114041
0.118751
0.12348
0.128216
0.132957
0.137696
0.142435
0.14715
0.151852
0.154188
0.156524
0.158854
0.161174
0.163495
0.165811
0.168121
0.170431
0.172735
0.175032
0.177328
0.17956
0.181793
0.18399
0.186181
0.188326
0.19044
0.192499
0.193505
0.194487
0.195486
0.19662
)


113
(
0.23293
0.22539
0.218618
0.211741
0.204769
0.197759
0.190756
0.183786
0.176867
0.170011
0.163228
0.156528
0.149853
0.143185
0.136635
0.130298
0.124121
0.118102
0.112289
0.106633
0.101117
0.0958084
0.0906595
0.0857078
0.0809082
0.076308
0.0719014
0.0676785
0.0636497
0.0598273
0.0562067
0.0527891
0.049574
0.0465718
0.0437797
0.0411984
0.0388303
0.0366704
0.0347188
0.0329702
0.0314299
0.0300983
0.0289708
0.0280467
0.0273138
0.0267859
0.0264435
0.0262866
0.0263364
0.0265758
0.0269958
0.0275928
0.0283648
0.0293064
0.0304068
0.0317065
0.0331715
0.0347845
0.0365377
0.0384748
0.0405685
0.0427842
0.0451392
0.0476737
0.0503107
0.053074
0.0560025
0.0590115
0.062162
0.0654307
0.0687679
0.0722737
0.0758282
0.0795073
0.0832629
0.0870938
0.0910348
0.0950182
0.0991016
0.103205
0.107432
0.111675
0.115967
0.120304
0.124712
0.129183
0.133703
0.138289
0.142896
0.147438
0.151983
0.154259
0.156535
0.158811
0.161084
0.163358
0.165629
0.167893
0.170158
0.172413
0.174661
0.176908
0.179128
0.181347
0.183531
0.185708
0.187833
0.189939
0.192031
0.193082
0.19417
0.195324
0.19662
)


113
(
0.23293
0.225216
0.218593
0.212236
0.205926
0.199623
0.193335
0.187084
0.180893
0.174781
0.168759
0.162837
0.157023
0.151321
0.145737
0.140284
0.134975
0.129798
0.124756
0.119853
0.115092
0.110475
0.106008
0.101716
0.0975026
0.0932433
0.0891305
0.0852885
0.0816925
0.0782848
0.0750917
0.0721448
0.0692899
0.0666267
0.0641518
0.061919
0.0597939
0.0578429
0.0561076
0.0544993
0.053058
0.0517858
0.0507101
0.0497699
0.0489948
0.0483793
0.0479212
0.0476222
0.0474828
0.0475037
0.0476767
0.047998
0.0484637
0.0490707
0.0498143
0.0507285
0.0517787
0.0529568
0.0542589
0.0557254
0.0573183
0.0590205
0.0608565
0.0628604
0.0649451
0.0671235
0.0694904
0.0719286
0.0744695
0.0771571
0.0799298
0.0828835
0.0859052
0.0891078
0.0924069
0.0958008
0.0992686
0.102765
0.106326
0.109903
0.113606
0.117336
0.121161
0.125029
0.128965
0.132954
0.136986
0.14108
0.145195
0.149377
0.153573
0.155689
0.157805
0.159926
0.162056
0.164186
0.166316
0.168448
0.17058
0.172706
0.174826
0.176945
0.179044
0.181144
0.183229
0.185311
0.187401
0.189516
0.191692
0.192814
0.194001
0.195256
0.19662
)


113
(
0.23293
0.225692
0.219439
0.213665
0.208118
0.202707
0.197386
0.192136
0.186953
0.18184
0.176802
0.171846
0.166978
0.162204
0.157529
0.152965
0.148523
0.144194
0.139979
0.135881
0.131903
0.128045
0.12431
0.120719
0.117252
0.113911
0.110696
0.107609
0.10465
0.101819
0.0991179
0.096546
0.0941037
0.0917969
0.0897313
0.0876829
0.0857633
0.0839706
0.0823041
0.080763
0.079346
0.0780561
0.0768897
0.0756285
0.0731495
0.071765
0.0707292
0.0698632
0.0693228
0.0689761
0.0688445
0.0689227
0.0692047
0.0696793
0.0703314
0.0712626
0.0724016
0.0745458
0.0774765
0.0785033
0.0796482
0.0808855
0.0822287
0.0837124
0.0852768
0.0869407
0.0885052
0.0901758
0.0922032
0.0943276
0.0965082
0.0988367
0.101209
0.103696
0.106259
0.108896
0.111641
0.114427
0.117343
0.120284
0.123352
0.126451
0.12965
0.132897
0.136218
0.139601
0.143033
0.146537
0.150066
0.153672
0.157296
0.15913
0.160963
0.162804
0.164658
0.166512
0.16837
0.170238
0.172106
0.173981
0.175863
0.177746
0.179651
0.181557
0.183501
0.185452
0.187477
0.189557
0.191734
0.192864
0.194057
0.195302
0.19662
)


113
(
0.23293
0.22677
0.2213
0.216291
0.211568
0.207059
0.202712
0.198494
0.194379
0.190354
0.18641
0.182541
0.178746
0.175022
0.171372
0.167801
0.164314
0.160906
0.157576
0.154326
0.151159
0.148075
0.145076
0.142604
0.139907
0.137253
0.134694
0.13223
0.129863
0.127593
0.125421
0.123348
0.121373
0.119498
0.117722
0.116048
0.114474
0.112998
0.111621
0.110342
0.109161
0.108081
0.1071
0.106217
0.105431
0.10474
0.104146
0.103646
0.103247
0.102947
0.102741
0.102629
0.102608
0.102676
0.102831
0.103096
0.103453
0.103893
0.104412
0.105038
0.105756
0.106548
0.107423
0.108411
0.109463
0.110596
0.111839
0.113137
0.114534
0.116014
0.117544
0.119203
0.120901
0.122698
0.124563
0.126493
0.128517
0.130578
0.132406
0.134253
0.136636
0.139042
0.141529
0.144054
0.146639
0.149274
0.15195
0.154689
0.157448
0.160283
0.163141
0.164595
0.166049
0.167517
0.169009
0.1705
0.172006
0.17354
0.175073
0.176635
0.178221
0.179809
0.181462
0.183114
0.184837
0.186573
0.188408
0.190297
0.192276
0.193301
0.19437
0.195473
0.19662
)


113
(
0.23293
0.228302
0.224053
0.220115
0.216403
0.212885
0.209534
0.206324
0.203236
0.200254
0.197366
0.194562
0.191836
0.189182
0.186596
0.18408
0.181635
0.17925
0.176926
0.174661
0.172455
0.170308
0.168221
0.166202
0.164242
0.162342
0.160502
0.158723
0.157005
0.155349
0.153755
0.152224
0.150756
0.149351
0.148011
0.146736
0.145525
0.144379
0.143296
0.142278
0.141325
0.140438
0.139616
0.138859
0.138166
0.137538
0.136974
0.136473
0.13604
0.135674
0.135371
0.135132
0.134955
0.134839
0.134782
0.134801
0.134883
0.135022
0.135215
0.135482
0.135814
0.136196
0.136637
0.137156
0.13772
0.13834
0.139038
0.139774
0.140579
0.141444
0.142343
0.143334
0.144352
0.145441
0.146577
0.147761
0.149013
0.150291
0.151654
0.153032
0.154496
0.155981
0.157536
0.159126
0.160771
0.162466
0.164201
0.166004
0.16783
0.16975
0.171699
0.172709
0.173719
0.174749
0.175813
0.176878
0.177962
0.179086
0.180211
0.181371
0.182563
0.183757
0.185022
0.186287
0.187618
0.188961
0.190383
0.191843
0.193362
0.194144
0.19495
0.195774
0.19662
)


113
(
0.23293
0.230163
0.22754
0.225052
0.222674
0.220399
0.218221
0.216132
0.214125
0.212193
0.21033
0.208531
0.206792
0.205109
0.20348
0.201904
0.200382
0.198906
0.197473
0.196083
0.194734
0.193425
0.192156
0.19093
0.189741
0.188588
0.187471
0.18639
0.185343
0.18433
0.183352
0.182407
0.181496
0.180618
0.179774
0.178963
0.178185
0.177439
0.176725
0.176043
0.175393
0.174776
0.174191
0.173637
0.173115
0.172625
0.172165
0.171737
0.171341
0.170979
0.170647
0.170346
0.170076
0.169835
0.169624
0.169449
0.169306
0.169191
0.169104
0.169053
0.169035
0.169042
0.169079
0.169156
0.169256
0.169385
0.169555
0.169746
0.169973
0.170232
0.170511
0.17084
0.171184
0.171569
0.171983
0.172424
0.172906
0.173405
0.173958
0.174522
0.175142
0.175777
0.176462
0.177172
0.177923
0.178713
0.179534
0.180409
0.181303
0.182271
0.183264
0.183789
0.184313
0.184852
0.185418
0.185984
0.186563
0.187172
0.18778
0.188411
0.189062
0.189714
0.190407
0.1911
0.191827
0.19256
0.193329
0.194114
0.194923
0.195336
0.195757
0.196185
0.19662
)


113
(
0.23293
0.232331
0.231739
0.231155
0.230577
0.230006
0.229442
0.228884
0.228333
0.227789
0.227251
0.226719
0.226193
0.225673
0.225159
0.224651
0.224149
0.223652
0.223161
0.222676
0.222195
0.22172
0.221251
0.220787
0.220328
0.219874
0.219425
0.21898
0.218541
0.218106
0.217676
0.217251
0.21683
0.216414
0.216002
0.215595
0.215192
0.214793
0.214399
0.214009
0.213623
0.213241
0.212863
0.212489
0.212119
0.211753
0.211391
0.211032
0.210677
0.210327
0.20998
0.209636
0.209296
0.208959
0.208626
0.208297
0.207971
0.207649
0.207329
0.207013
0.206701
0.206392
0.206085
0.205783
0.205483
0.205186
0.204894
0.204603
0.204316
0.204032
0.20375
0.203473
0.203198
0.202926
0.202657
0.20239
0.202127
0.201866
0.201609
0.201353
0.201102
0.200852
0.200606
0.200362
0.200121
0.199882
0.199646
0.199414
0.199182
0.198955
0.19873
0.198619
0.198507
0.198397
0.198288
0.198178
0.19807
0.197963
0.197855
0.197749
0.197643
0.197538
0.197433
0.197329
0.197226
0.197123
0.197022
0.19692
0.19682
0.196769
0.196719
0.19667
0.19662
)

)


10
(

113
(
0.233
0.226178
0.219846
0.212711
0.205776
0.198301
0.19128
0.183755
0.176514
0.168817
0.160947
0.15325
0.14575
0.138308
0.131385
0.123333
0.1155
0.108231
0.101242
0.0936583
0.0867385
0.0797
0.0726333
0.0658846
0.0598077
0.053575
0.0476167
0.0419917
0.036675
0.0316417
0.0270583
0.0225909
0.0187667
0.01535
0.0122364
0.00947182
0.00714636
0.00527545
0.00383
0.00281182
0.00211273
0.001652
0.00147545
0.001503
0.00174
0.00217091
0.00281636
0.00367
0.00470667
0.00599
0.00746692
0.00930417
0.0113769
0.0135857
0.0160143
0.0187857
0.0218143
0.0251
0.0285
0.0319813
0.0355437
0.0393875
0.0433187
0.0473812
0.0514412
0.0555
0.0595556
0.0636333
0.0678
0.0720111
0.0762889
0.0804947
0.0846526
0.0888474
0.0930579
0.09714
0.10119
0.1052
0.1092
0.1132
0.1172
0.1216
0.1261
0.130368
0.134579
0.1386
0.1426
0.1465
0.150444
0.154889
0.159235
0.161294
0.163353
0.165375
0.16725
0.169125
0.171
0.173
0.175
0.177
0.179083
0.181167
0.183091
0.184909
0.186667
0.188333
0.190286
0.192333
0.194
0.194625
0.1955
0.196
0.197
)


113
(
0.233
0.226291
0.219395
0.212457
0.20539
0.198196
0.190895
0.183514
0.17607
0.168583
0.161073
0.153558
0.146051
0.138566
0.131123
0.123736
0.116416
0.109178
0.102025
0.0950048
0.0881477
0.0814336
0.0748966
0.068556
0.0624371
0.056592
0.0510018
0.0456814
0.0406451
0.0359062
0.0315185
0.0274741
0.0237869
0.0204322
0.0174057
0.0147354
0.0124114
0.0104221
0.00876104
0.00745808
0.00645879
0.00574019
0.00532487
0.00516732
0.00528479
0.00564888
0.00625931
0.00711335
0.00818344
0.00947399
0.0110466
0.0128112
0.0147916
0.0169614
0.0193541
0.0219649
0.024732
0.0276514
0.0308109
0.0340833
0.0374685
0.0410328
0.0446657
0.0484124
0.0522526
0.0561329
0.0601166
0.0641148
0.0681704
0.0722435
0.0763429
0.0804555
0.0845768
0.0887034
0.0928321
0.0969627
0.101094
0.105229
0.109365
0.113507
0.117651
0.1218
0.125949
0.130096
0.134242
0.138378
0.142513
0.146634
0.150751
0.154845
0.158929
0.160958
0.162987
0.165012
0.167016
0.169021
0.171025
0.173
0.174974
0.176949
0.178888
0.180827
0.182742
0.18464
0.186518
0.188363
0.190162
0.191915
0.193612
0.194422
0.195233
0.196058
0.197
)


113
(
0.233
0.226034
0.219125
0.212047
0.204905
0.197717
0.190351
0.183024
0.17583
0.168613
0.16142
0.154264
0.147145
0.140078
0.133096
0.126207
0.119422
0.11276
0.10622
0.099845
0.0936594
0.0876337
0.0817974
0.0761595
0.0707351
0.0655646
0.0606241
0.0559194
0.0514564
0.0472401
0.0433105
0.0396589
0.0362891
0.0331808
0.0303371
0.0277777
0.0254828
0.0234736
0.0217361
0.020287
0.0191134
0.0181943
0.0175403
0.0171329
0.0169888
0.0170771
0.017406
0.0179752
0.0187513
0.0197366
0.020989
0.0224161
0.0240387
0.0258323
0.0278268
0.0300149
0.0323402
0.0347986
0.0374744
0.0402567
0.0431453
0.0462103
0.0493487
0.0526127
0.0559891
0.0594138
0.0629838
0.0665795
0.0702783
0.0740201
0.0778264
0.0816846
0.0855775
0.0895191
0.0934815
0.0974894
0.101509
0.105558
0.109615
0.113692
0.117775
0.121869
0.125966
0.130066
0.134166
0.138261
0.142355
0.146433
0.150507
0.154561
0.158601
0.160604
0.162607
0.164606
0.166591
0.168575
0.17056
0.172538
0.174515
0.176493
0.178439
0.180385
0.182299
0.184191
0.186068
0.187921
0.189752
0.19156
0.193334
0.194201
0.19507
0.195966
0.197
)


113
(
0.233
0.225524
0.218802
0.211994
0.205097
0.198167
0.191252
0.184377
0.177558
0.170807
0.164131
0.157542
0.150989
0.144412
0.138001
0.131784
0.125724
0.11986
0.114194
0.108635
0.103323
0.098132
0.0931147
0.0883078
0.0836807
0.0792423
0.0750094
0.0709752
0.067133
0.0634852
0.0600592
0.0568646
0.0538954
0.0511319
0.0485713
0.0462323
0.0441145
0.0422215
0.0405257
0.0390704
0.0378441
0.0368107
0.0360123
0.0354002
0.0350021
0.0347995
0.0347936
0.0349934
0.0353819
0.0359552
0.0367437
0.0376804
0.0387893
0.0400545
0.0415098
0.0431317
0.04488
0.0467555
0.0488414
0.0510284
0.0533167
0.055787
0.0583338
0.0610124
0.0638143
0.066669
0.0696938
0.07275
0.075932
0.0791699
0.0824916
0.0858948
0.0893523
0.0928849
0.0964497
0.100091
0.103752
0.107489
0.111245
0.115043
0.118852
0.122723
0.126608
0.130527
0.134454
0.138406
0.142362
0.146417
0.150474
0.154441
0.158404
0.160381
0.162358
0.164333
0.166298
0.168264
0.170229
0.172178
0.174127
0.176076
0.178005
0.179933
0.181845
0.183746
0.185631
0.187495
0.189335
0.191156
0.192966
0.193894
0.194841
0.195859
0.197
)


113
(
0.233
0.225391
0.218846
0.212572
0.206351
0.200144
0.193957
0.187815
0.181739
0.175748
0.169849
0.164057
0.158373
0.152804
0.147377
0.142082
0.136918
0.131892
0.126991
0.122254
0.117687
0.113254
0.108974
0.104842
0.100846
0.0967679
0.0928844
0.0892568
0.0858717
0.0826806
0.0796822
0.0768767
0.0742848
0.0719112
0.0697005
0.0676214
0.0657158
0.0639915
0.0624931
0.0611378
0.0599438
0.058903
0.0580528
0.0573608
0.0568364
0.0564608
0.0562282
0.0561439
0.056211
0.0564558
0.0568647
0.0573678
0.0580254
0.0588298
0.0597659
0.0608513
0.0620513
0.0633674
0.0648638
0.0664452
0.0681116
0.069967
0.0718936
0.0739371
0.0760893
0.0782882
0.0806845
0.0831183
0.0857024
0.088353
0.0911035
0.0939531
0.0968688
0.0999192
0.103027
0.106284
0.109577
0.112865
0.116151
0.119525
0.12292
0.126391
0.129881
0.133435
0.137006
0.140637
0.144274
0.14796
0.151655
0.155385
0.159122
0.160999
0.162877
0.164755
0.166636
0.168517
0.170398
0.172272
0.174146
0.17602
0.177877
0.179734
0.181578
0.183413
0.185244
0.187067
0.1889
0.190751
0.192652
0.193661
0.194694
0.195802
0.197
)


113
(
0.233
0.225909
0.219776
0.214111
0.208677
0.203387
0.198192
0.193072
0.188024
0.183049
0.178152
0.173341
0.168618
0.163992
0.159483
0.155086
0.150801
0.14663
0.142565
0.138637
0.134849
0.131171
0.127618
0.124189
0.120888
0.117733
0.114703
0.111798
0.109018
0.106363
0.103848
0.101468
0.0992213
0.0971683
0.0952374
0.0933681
0.0916249
0.0900067
0.0885128
0.0871554
0.0859195
0.0847989
0.0838042
0.0829213
0.0808977
0.0792498
0.0783512
0.0777149
0.0772854
0.0770827
0.0770738
0.0772787
0.0776982
0.0782818
0.0790294
0.080041
0.0819857
0.0852312
0.0862279
0.0873054
0.0884639
0.0897685
0.0911367
0.0926153
0.0942039
0.0958398
0.0974065
0.0990585
0.101052
0.103103
0.105241
0.107465
0.109746
0.112126
0.114548
0.11708
0.11964
0.122306
0.125
0.127793
0.130612
0.133524
0.136459
0.139477
0.142516
0.145639
0.148771
0.151974
0.15519
0.158461
0.161746
0.163403
0.16506
0.16672
0.168391
0.170061
0.171732
0.17341
0.175089
0.176768
0.178456
0.180145
0.181847
0.183557
0.185286
0.187042
0.188842
0.190692
0.192628
0.19366
0.194713
0.195826
0.197
)


113
(
0.233
0.227016
0.2217
0.216824
0.212233
0.207861
0.203654
0.199574
0.1956
0.191714
0.187909
0.184181
0.180525
0.176941
0.173443
0.170022
0.166678
0.163412
0.160217
0.157116
0.15411
0.151178
0.148332
0.145649
0.143371
0.140898
0.138483
0.13616
0.133929
0.131791
0.129758
0.127824
0.125992
0.124251
0.122601
0.12105
0.119594
0.118234
0.116969
0.11581
0.114744
0.113769
0.112894
0.112107
0.111418
0.11082
0.110314
0.1099
0.109571
0.10933
0.109201
0.10915
0.109188
0.109305
0.109515
0.109823
0.110202
0.110653
0.111225
0.111862
0.112563
0.11338
0.114249
0.115208
0.116256
0.117344
0.118565
0.119813
0.121169
0.122577
0.124063
0.125628
0.127245
0.128953
0.1307
0.132549
0.134423
0.136111
0.137752
0.139833
0.142022
0.144291
0.146579
0.148939
0.151317
0.153769
0.15623
0.158759
0.161301
0.163903
0.166523
0.167856
0.169189
0.170528
0.171894
0.17326
0.174626
0.176031
0.177437
0.178842
0.180296
0.181751
0.183242
0.184759
0.186307
0.187903
0.189555
0.191264
0.193054
0.194001
0.194962
0.195963
0.197
)


113
(
0.233
0.22854
0.224445
0.220643
0.217061
0.213674
0.210452
0.20737
0.204406
0.201545
0.198773
0.196085
0.193471
0.190927
0.18846
0.186058
0.183718
0.181438
0.179212
0.177053
0.17496
0.172919
0.170935
0.169009
0.167142
0.165341
0.163598
0.161912
0.160283
0.158713
0.157207
0.155765
0.154386
0.153065
0.151801
0.150601
0.149461
0.148383
0.147366
0.146417
0.145529
0.1447
0.143937
0.143231
0.142591
0.142011
0.141491
0.141034
0.140633
0.140292
0.140026
0.139813
0.13966
0.139561
0.139527
0.139559
0.13964
0.139771
0.139987
0.140247
0.140552
0.140939
0.141362
0.141848
0.142398
0.142976
0.143648
0.144341
0.14511
0.145917
0.14678
0.147701
0.148659
0.149683
0.150736
0.151865