/*--------------------------------*- C++ -*----------------------------------*\
| =========                 |                                                 |
| \\      /  F ield         | OpenFOAM: The Open Source CFD Toolbox           |
|  \\    /   O peration     | Version:  2.3.0                                 |
|   \\  /    A nd           | Web:      www.OpenFOAM.org                      |
|    \\/     M anipulation  |                                                 |
\*---------------------------------------------------------------------------*/
FoamFile
{
    version     2.0;
    format      ascii;
    class       dictionary;
    location    "constant";
    object      O;
}
// * * * * * * * * * * * * * * * * * * * * * * * * * * * * * * * * * * * * * //

O_table
13
(

10
(

113
(
0
2.04333e-09
8.08e-09
2.3763e-08
5.60035e-08
1.14207e-07
2.14921e-07
3.98803e-07
6.9211e-07
1.10424e-06
1.87907e-06
3.06718e-06
4.58e-06
7.44792e-06
1.12944e-05
1.65491e-05
2.49129e-05
3.50915e-05
5.03354e-05
7.02135e-05
9.42012e-05
0.000127002
0.000163395
0.000207222
0.00025342
0.00030082
0.000341814
0.000375932
0.000400155
0.000402987
0.000394831
0.000365456
0.000322925
0.000271881
0.000215906
0.000163044
0.00011431
7.85949e-05
4.90563e-05
3.00057e-05
1.75999e-05
8.84938e-06
5.01087e-06
2.48257e-06
1.21311e-06
6.9148e-07
3.40972e-07
2.22536e-07
1.28958e-07
8.82011e-08
5.96631e-08
4.49037e-08
3.625e-08
3.16667e-08
3.04071e-08
3.07117e-08
3.30144e-08
3.61332e-08
4.08e-08
4.61623e-08
5.30714e-08
6.09286e-08
7.04103e-08
8.13916e-08
9.39704e-08
1.09156e-07
1.2544e-07
1.45624e-07
1.65909e-07
1.88636e-07
2.11364e-07
2.29063e-07
2.45805e-07
2.49446e-07
2.45392e-07
2.31103e-07
2.02085e-07
1.7211e-07
1.37464e-07
1.02818e-07
7.79722e-08
5.40956e-08
3.76841e-08
2.54717e-08
1.58603e-08
1.04926e-08
5.63206e-09
3.64583e-09
1.65959e-09
9.9433e-10
3.69928e-10
2.45503e-10
1.80376e-10
1.15248e-10
5.01204e-11
3.16044e-11
2.19667e-11
1.23291e-11
4.99242e-12
3.57248e-12
2.15254e-12
8.71164e-13
6.05866e-13
3.40567e-13
1.63502e-13
9.87333e-14
4.59469e-14
2.39716e-14
9.88821e-15
5.06971e-15
2.44114e-15
6.89286e-16
0
)


113
(
0
8.42268e-09
3.2692e-08
8.97987e-08
2.02456e-07
4.01946e-07
7.4621e-07
1.38235e-06
2.37025e-06
3.72412e-06
6.06866e-06
9.37202e-06
1.34287e-05
2.0045e-05
2.80867e-05
3.81796e-05
5.16582e-05
6.67453e-05
8.55532e-05
0.000106391
0.000129029
0.00015367
0.000178456
0.000203017
0.000225422
0.000246491
0.000261518
0.00027309
0.000279692
0.000278967
0.000274583
0.00026332
0.000247841
0.00022958
0.000207106
0.00018393
0.000159825
0.000136497
0.000114033
9.35352e-05
7.55263e-05
5.91024e-05
4.6103e-05
3.50318e-05
2.58131e-05
1.92381e-05
1.34318e-05
9.77013e-06
6.63451e-06
4.6167e-06
3.06176e-06
2.02877e-06
1.32368e-06
8.37179e-07
5.43691e-07
3.41032e-07
2.2983e-07
1.55983e-07
1.1915e-07
9.89477e-08
9.14536e-08
9.17486e-08
9.60887e-08
1.04163e-07
1.13376e-07
1.24448e-07
1.35529e-07
1.46639e-07
1.57637e-07
1.65964e-07
1.74291e-07
1.78033e-07
1.80901e-07
1.79237e-07
1.74913e-07
1.67733e-07
1.56443e-07
1.44385e-07
1.28578e-07
1.12771e-07
9.63267e-08
7.98196e-08
6.49834e-08
5.1087e-08
3.88121e-08
2.91828e-08
2.01671e-08
1.46281e-08
9.08904e-09
6.28912e-09
3.57393e-09
2.81632e-09
2.24818e-09
1.68003e-09
1.11189e-09
8.46354e-10
6.38454e-10
4.30555e-10
2.62006e-10
1.94646e-10
1.27286e-10
6.56424e-11
4.59193e-11
2.61962e-11
1.27384e-11
7.25464e-12
2.86648e-12
1.2956e-12
4.31719e-13
1.9398e-13
9.53598e-14
3.06808e-14
0
)


113
(
0
3.51224e-07
9.57006e-07
1.93976e-06
3.3564e-06
5.28385e-06
7.88615e-06
1.12993e-05
1.54249e-05
2.02045e-05
2.61668e-05
3.29208e-05
4.02966e-05
4.89566e-05
5.80521e-05
6.77743e-05
7.81625e-05
8.87641e-05
9.95951e-05
0.000110281
0.000120839
0.000130718
0.000140172
0.00014863
0.000155956
0.000162603
0.000167206
0.000170861
0.000173155
0.000173625
0.00017317
0.000170954
0.000167509
0.000163243
0.000157229
0.000150685
0.000143439
0.000135264
0.000126798
0.000117989
0.000109045
0.000100066
9.12918e-05
8.26475e-05
7.41282e-05
6.62955e-05
5.86791e-05
5.17542e-05
4.51899e-05
3.93918e-05
3.40375e-05
2.91836e-05
2.48803e-05
2.0944e-05
1.76539e-05
1.46678e-05
1.22335e-05
1.00247e-05
8.25561e-06
6.68411e-06
5.42149e-06
4.34818e-06
3.47316e-06
2.78118e-06
2.18383e-06
1.74088e-06
1.33684e-06
1.07081e-06
8.09515e-07
6.62175e-07
5.14834e-07
4.20812e-07
3.36945e-07
2.76349e-07
2.29421e-07
1.91038e-07
1.64952e-07
1.40603e-07
1.24735e-07
1.08866e-07
9.68636e-08
8.52432e-08
7.51532e-08
6.59241e-08
5.72298e-08
4.94081e-08
4.17761e-08
3.52191e-08
2.8662e-08
2.35715e-08
1.85264e-08
1.6478e-08
1.45794e-08
1.26808e-08
1.07822e-08
9.35949e-09
8.0274e-09
6.6953e-09
5.48997e-09
4.61062e-09
3.73126e-09
2.89047e-09
2.33251e-09
1.77456e-09
1.30696e-09
9.54385e-10
6.36904e-10
4.09675e-10
2.30851e-10
1.55495e-10
9.83976e-11
4.7222e-11
0
)


113
(
0
2.06491e-06
4.33788e-06
7.06199e-06
1.02125e-05
1.37636e-05
1.77257e-05
2.21174e-05
2.67973e-05
3.17215e-05
3.70057e-05
4.24527e-05
4.80277e-05
5.3853e-05
5.96711e-05
6.5479e-05
7.11926e-05
7.68381e-05
8.22662e-05
8.7355e-05
9.21428e-05
9.65825e-05
0.000100844
0.000104706
0.000108
0.00011096
0.000113254
0.000115214
0.000116694
0.000117496
0.000117959
0.000117783
0.000117167
0.000116257
0.00011465
0.000112779
0.000110558
0.000107806
0.000104849
0.000101589
9.80905e-05
9.44455e-05
9.05112e-05
8.64315e-05
8.2212e-05
7.80747e-05
7.39343e-05
6.96419e-05
6.54182e-05
6.13404e-05
5.72965e-05
5.32908e-05
4.93897e-05
4.55585e-05
4.19809e-05
3.85226e-05
3.52373e-05
3.20226e-05
2.91309e-05
2.63842e-05
2.38484e-05
2.1442e-05
1.92081e-05
1.71335e-05
1.51966e-05
1.34844e-05
1.18508e-05
1.04963e-05
9.15119e-06
8.03301e-06
6.91484e-06
6.01633e-06
5.15967e-06
4.43936e-06
3.79915e-06
3.2266e-06
2.75143e-06
2.29773e-06
1.94886e-06
1.6e-06
1.34863e-06
1.10691e-06
9.1414e-07
7.48897e-07
6.04051e-07
4.92483e-07
3.86601e-07
3.12933e-07
2.39265e-07
1.91514e-07
1.44564e-07
1.27512e-07
1.12489e-07
9.74649e-08
8.24412e-08
7.19162e-08
6.2248e-08
5.25799e-08
4.38476e-08
3.7522e-08
3.11963e-08
2.512e-08
2.08717e-08
1.66234e-08
1.29414e-08
9.98008e-09
7.23798e-09
5.05953e-09
3.16883e-09
2.30529e-09
1.53027e-09
7.70302e-10
0
)


113
(
0
3.33339e-06
6.414e-06
9.54968e-06
1.28104e-05
1.61996e-05
1.97126e-05
2.33283e-05
2.69934e-05
3.06935e-05
3.44113e-05
3.81097e-05
4.1793e-05
4.53887e-05
4.89275e-05
5.23846e-05
5.56922e-05
5.89231e-05
6.19623e-05
6.48593e-05
6.76303e-05
7.01315e-05
7.25185e-05
7.46657e-05
7.66314e-05
7.84915e-05
8.01843e-05
8.16443e-05
8.27693e-05
8.34823e-05
8.4071e-05
8.45792e-05
8.47705e-05
8.47545e-05
8.45127e-05
8.41054e-05
8.34787e-05
8.26033e-05
8.16123e-05
8.04273e-05
7.90629e-05
7.75957e-05
7.59657e-05
7.42438e-05
7.24334e-05
7.04081e-05
6.83488e-05
6.63455e-05
6.42762e-05
6.20667e-05
5.9788e-05
5.74312e-05
5.51295e-05
5.28644e-05
5.04945e-05
4.80753e-05
4.57656e-05
4.35006e-05
4.12703e-05
3.90557e-05
3.68718e-05
3.47067e-05
3.26205e-05
3.06071e-05
2.86577e-05
2.68127e-05
2.49836e-05
2.32109e-05
2.14458e-05
1.98639e-05
1.8282e-05
1.6852e-05
1.54509e-05
1.41452e-05
1.28953e-05
1.17111e-05
1.06211e-05
9.55888e-06
8.63217e-06
7.70546e-06
6.91202e-06
6.13177e-06
5.43731e-06
4.7911e-06
4.1903e-06
3.66358e-06
3.15244e-06
2.72957e-06
2.3067e-06
1.96902e-06
1.63397e-06
1.49384e-06
1.36236e-06
1.23089e-06
1.09941e-06
9.92084e-07
8.89357e-07
7.8663e-07
6.90171e-07
6.09827e-07
5.29483e-07
4.51167e-07
3.87719e-07
3.24271e-07
2.66089e-07
2.1461e-07
1.65233e-07
1.21264e-07
7.97426e-08
5.96528e-08
4.00251e-08
2.02701e-08
0
)


113
(
0
3.33686e-06
6.28802e-06
9.05651e-06
1.1749e-05
1.44029e-05
1.7033e-05
1.96399e-05
2.22244e-05
2.47867e-05
2.72958e-05
2.97602e-05
3.21895e-05
3.45169e-05
3.67946e-05
3.90005e-05
4.10957e-05
4.31373e-05
4.50521e-05
4.68806e-05
4.86325e-05
5.02305e-05
5.17655e-05
5.31701e-05
5.44601e-05
5.56819e-05
5.67266e-05
5.76972e-05
5.85613e-05
5.92825e-05
5.99311e-05
6.0441e-05
6.0846e-05
6.11801e-05
6.13212e-05
6.14061e-05
6.14166e-05
6.12968e-05
6.11149e-05
6.08267e-05
6.04443e-05
6.0004e-05
5.94505e-05
5.90783e-05
5.88803e-05
5.83228e-05
5.76694e-05
5.6793e-05
5.58731e-05
5.48609e-05
5.37556e-05
5.25454e-05
5.13082e-05
5.0053e-05
4.86861e-05
4.72667e-05
4.54602e-05
4.34956e-05
4.19272e-05
4.05368e-05
3.9133e-05
3.77209e-05
3.63055e-05
3.4887e-05
3.34719e-05
3.20621e-05
3.06607e-05
2.9289e-05
2.7918e-05
2.65615e-05
2.52051e-05
2.38906e-05
2.2584e-05
2.13149e-05
2.00677e-05
1.88483e-05
1.76688e-05
1.6502e-05
1.53973e-05
1.42926e-05
1.32611e-05
1.22368e-05
1.12664e-05
1.03263e-05
9.41873e-06
8.56437e-06
7.72285e-06
6.95406e-06
6.18527e-06
5.49724e-06
4.81171e-06
4.4988e-06
4.19532e-06
3.89184e-06
3.58836e-06
3.31475e-06
3.04683e-06
2.77891e-06
2.5195e-06
2.28198e-06
2.04446e-06
1.80978e-06
1.59592e-06
1.38206e-06
1.17501e-06
9.7662e-07
7.80154e-07
5.88636e-07
3.96919e-07
3.00836e-07
2.02768e-07
1.0296e-07
0
)


113
(
0
2.64553e-06
5.00413e-06
7.16241e-06
9.19377e-06
1.11313e-05
1.29898e-05
1.47778e-05
1.652e-05
1.82231e-05
1.98624e-05
2.14627e-05
2.30323e-05
2.45289e-05
2.59938e-05
2.74132e-05
2.87672e-05
3.00902e-05
3.1342e-05
3.25467e-05
3.37097e-05
3.47908e-05
3.58079e-05
3.66688e-05
3.75239e-05
3.83738e-05
3.91278e-05
3.98416e-05
4.04978e-05
4.10766e-05
4.16161e-05
4.20801e-05
4.24866e-05
4.28546e-05
4.31322e-05
4.33711e-05
4.35588e-05
4.36722e-05
4.37495e-05
4.3765e-05
4.37239e-05
4.3648e-05
4.3502e-05
4.33159e-05
4.30912e-05
4.28012e-05
4.24904e-05
4.21117e-05
4.17093e-05
4.12565e-05
4.07706e-05
4.02473e-05
3.96842e-05
3.90946e-05
3.84627e-05
3.78109e-05
3.71182e-05
3.64089e-05
3.56634e-05
3.49018e-05
3.41114e-05
3.33034e-05
3.24745e-05
3.16265e-05
3.07658e-05
2.98844e-05
2.89973e-05
2.80896e-05
2.71811e-05
2.62542e-05
2.53273e-05
2.43901e-05
2.3451e-05
2.25086e-05
2.15644e-05
2.06209e-05
1.96784e-05
1.87455e-05
1.78592e-05
1.69728e-05
1.60451e-05
1.51134e-05
1.41982e-05
1.32923e-05
1.2398e-05
1.15229e-05
1.06529e-05
9.81251e-06
8.97209e-06
8.16745e-06
7.36392e-06
6.9759e-06
6.59223e-06
6.20856e-06
5.82489e-06
5.45448e-06
5.08661e-06
4.71874e-06
4.35405e-06
3.99755e-06
3.64105e-06
3.28515e-06
2.93364e-06
2.58213e-06
2.22953e-06
1.87554e-06
1.51899e-06
1.15584e-06
7.84161e-07
5.95608e-07
4.01158e-07
2.03272e-07
0
)


113
(
0
1.7493e-06
3.34991e-06
4.8246e-06
6.20521e-06
7.50755e-06
8.73712e-06
9.89704e-06
1.10113e-05
1.20869e-05
1.3102e-05
1.40834e-05
1.50384e-05
1.59368e-05
1.6813e-05
1.76573e-05
1.84596e-05
1.92427e-05
1.9983e-05
2.06965e-05
2.13861e-05
2.20305e-05
2.2657e-05
2.32466e-05
2.38045e-05
2.43437e-05
2.48347e-05
2.53057e-05
2.57479e-05
2.61513e-05
2.6535e-05
2.68808e-05
2.71975e-05
2.74946e-05
2.77456e-05
2.79765e-05
2.8181e-05
2.83465e-05
2.8493e-05
2.86066e-05
2.86897e-05
2.87538e-05
2.87794e-05
2.87824e-05
2.87638e-05
2.87076e-05
2.86392e-05
2.85308e-05
2.84079e-05
2.82544e-05
2.80799e-05
2.78818e-05
2.76575e-05
2.74158e-05
2.71449e-05
2.68603e-05
2.6546e-05
2.62196e-05
2.58651e-05
2.54981e-05
2.51069e-05
2.47009e-05
2.42756e-05
2.38326e-05
2.33765e-05
2.28988e-05
2.2414e-05
2.19042e-05
2.13932e-05
2.08539e-05
2.03147e-05
1.97532e-05
1.91875e-05
1.8607e-05
1.80178e-05
1.74202e-05
1.68106e-05
1.6198e-05
1.55708e-05
1.49436e-05
1.43029e-05
1.3661e-05
1.30113e-05
1.23571e-05
1.16991e-05
1.10346e-05
1.03688e-05
9.69504e-06
9.02126e-06
8.33784e-06
7.65413e-06
7.30756e-06
6.9595e-06
6.61143e-06
6.26337e-06
5.90819e-06
5.55165e-06
5.19511e-06
4.83532e-06
4.46713e-06
4.09895e-06
3.72894e-06
3.34556e-06
2.96217e-06
2.57082e-06
2.16932e-06
1.76245e-06
1.34178e-06
9.09464e-07
6.89747e-07
4.63621e-07
2.34224e-07
0
)


113
(
0
8.60131e-07
1.67106e-06
2.43493e-06
3.15966e-06
3.84907e-06
4.5031e-06
5.12047e-06
5.71254e-06
6.28278e-06
6.81766e-06
7.33239e-06
7.83131e-06
8.29633e-06
8.74828e-06
9.18143e-06
9.5905e-06
9.98869e-06
1.03632e-05
1.07233e-05
1.10707e-05
1.1395e-05
1.17102e-05
1.20071e-05
1.22889e-05
1.25618e-05
1.28123e-05
1.30536e-05
1.32819e-05
1.34931e-05
1.36955e-05
1.38814e-05
1.40547e-05
1.42196e-05
1.43648e-05
1.45015e-05
1.4627e-05
1.4736e-05
1.48369e-05
1.49239e-05
1.49979e-05
1.50639e-05
1.51134e-05
1.51532e-05
1.51837e-05
1.51979e-05
1.52067e-05
1.51979e-05
1.51826e-05
1.51536e-05
1.51151e-05
1.50657e-05
1.50042e-05
1.49345e-05
1.48508e-05
1.47606e-05
1.46556e-05
1.45447e-05
1.44194e-05
1.42876e-05
1.4143e-05
1.39904e-05
1.3827e-05
1.36536e-05
1.34724e-05
1.32784e-05
1.30799e-05
1.28654e-05
1.26501e-05
1.24152e-05
1.21803e-05
1.19284e-05
1.16733e-05
1.14054e-05
1.113e-05
1.08463e-05
1.05505e-05
1.02513e-05
9.93473e-06
9.6182e-06
9.28218e-06
8.94424e-06
8.59205e-06
8.23183e-06
7.86273e-06
7.47911e-06
7.09176e-06
6.68324e-06
6.27473e-06
5.84033e-06
5.40513e-06
5.17668e-06
4.9448e-06
4.71292e-06
4.48104e-06
4.23647e-06
3.98948e-06
3.7425e-06
3.49113e-06
3.22847e-06
2.96582e-06
2.70129e-06
2.42293e-06
2.14458e-06
1.85968e-06
1.56646e-06
1.26958e-06
9.63314e-07
6.50195e-07
4.91577e-07
3.29564e-07
1.65935e-07
0
)


113
(
0
6.67469e-08
1.31861e-07
1.95264e-07
2.57114e-07
3.17461e-07
3.76193e-07
4.33099e-07
4.88651e-07
5.43005e-07
5.95274e-07
6.46262e-07
6.96243e-07
7.43911e-07
7.9063e-07
8.35983e-07
8.7949e-07
9.22145e-07
9.62893e-07
1.00244e-06
1.04092e-06
1.07739e-06
1.11307e-06
1.14712e-06
1.17978e-06
1.21162e-06
1.24137e-06
1.27027e-06
1.29792e-06
1.32391e-06
1.34906e-06
1.3726e-06
1.39491e-06
1.41638e-06
1.43589e-06
1.45454e-06
1.47207e-06
1.48793e-06
1.50296e-06
1.51657e-06
1.52885e-06
1.54029e-06
1.55003e-06
1.55874e-06
1.56648e-06
1.57248e-06
1.57792e-06
1.58147e-06
1.58432e-06
1.58567e-06
1.58598e-06
1.58509e-06
1.58284e-06
1.57968e-06
1.57493e-06
1.56942e-06
1.56222e-06
1.55432e-06
1.54472e-06
1.53435e-06
1.52242e-06
1.50953e-06
1.49531e-06
1.47985e-06
1.46339e-06
1.4453e-06
1.42663e-06
1.40588e-06
1.38502e-06
1.36155e-06
1.33809e-06
1.31231e-06
1.28608e-06
1.2581e-06
1.22908e-06
1.1989e-06
1.16703e-06
1.13467e-06
1.09989e-06
1.06511e-06
1.02762e-06
9.89862e-07
9.50172e-07
9.09395e-07
8.67459e-07
8.23635e-07
7.79353e-07
7.32482e-07
6.8561e-07
6.35823e-07
5.85946e-07
5.59903e-07
5.33511e-07
5.0712e-07
4.80728e-07
4.53188e-07
4.25429e-07
3.9767e-07
3.69561e-07
3.40551e-07
3.11542e-07
2.824e-07
2.52285e-07
2.2217e-07
1.91647e-07
1.60603e-07
1.29354e-07
9.75751e-08
6.5442e-08
4.92697e-08
3.29321e-08
1.65189e-08
0
)

)


10
(

113
(
0
1.78606e-08
5.91127e-08
1.5223e-07
3.28388e-07
6.50233e-07
1.23241e-06
2.28169e-06
4.14817e-06
7.35376e-06
1.25654e-05
2.05367e-05
3.20653e-05
4.79593e-05
6.89854e-05
9.63986e-05
0.000131362
0.000173331
0.000222212
0.000277536
0.000338387
0.000403369
0.000470596
0.000536874
0.00059897
0.000653914
0.000698639
0.000730353
0.000746643
0.000745663
0.00072639
0.000688772
0.000633773
0.000563793
0.000482391
0.000394719
0.000306977
0.0002255
0.000155226
9.94248e-05
5.88405e-05
3.25403e-05
1.70837e-05
8.73447e-06
4.51311e-06
2.46783e-06
1.49878e-06
1.04432e-06
8.44862e-07
7.62245e-07
7.39333e-07
7.52353e-07
7.87538e-07
8.36774e-07
8.94604e-07
9.55973e-07
1.01332e-06
1.06215e-06
1.09919e-06
1.1124e-06
1.09759e-06
1.05957e-06
9.9391e-07
8.97684e-07
7.90409e-07
6.72085e-07
5.56467e-07
4.46315e-07
3.50349e-07
2.70562e-07
2.00155e-07
1.52586e-07
1.10404e-07
8.16037e-08
5.88276e-08
4.19796e-08
3.04418e-08
2.09589e-08
1.53874e-08
1.03902e-08
7.61584e-09
5.14043e-09
3.66005e-09
2.44708e-09
1.65947e-09
1.08321e-09
6.77099e-10
4.29378e-10
2.34454e-10
1.48678e-10
7.88752e-11
6.1964e-11
4.50528e-11
3.18152e-11
2.52231e-11
1.86311e-11
1.32924e-11
1.05452e-11
7.79801e-12
5.83705e-12
4.54584e-12
3.27738e-12
2.5847e-12
1.89202e-12
1.42438e-12
9.96863e-13
6.97225e-13
4.3687e-13
2.33287e-13
1.49648e-13
8.59843e-14
3.65129e-14
0
)


113
(
0
5.24793e-08
1.95427e-07
5.38474e-07
1.20761e-06
2.42975e-06
4.51965e-06
7.90157e-06
1.30851e-05
2.05969e-05
3.09845e-05
4.47567e-05
6.23537e-05
8.41333e-05
0.000110325
0.00014134
0.000177225
0.000216927
0.000259757
0.000304817
0.000351017
0.000397095
0.000441571
0.000482203
0.000517702
0.000546798
0.000568305
0.000581318
0.000585239
0.000579855
0.000565369
0.000542322
0.000511673
0.00047479
0.000433091
0.000388394
0.000342279
0.000296368
0.000252257
0.000210875
0.000172887
0.000139354
0.000110386
8.57938e-05
6.54855e-05
4.90433e-05
3.59841e-05
2.5891e-05
1.84581e-05
1.30471e-05
9.13656e-06
6.36666e-06
4.43778e-06
3.12578e-06
2.25735e-06
1.75089e-06
1.4225e-06
1.20592e-06
1.06568e-06
9.8133e-07
9.16498e-07
8.60033e-07
8.07282e-07
7.51487e-07
6.9322e-07
6.31624e-07
5.67116e-07
5.02191e-07
4.37633e-07
3.76094e-07
3.16304e-07
2.64416e-07
2.15403e-07
1.74007e-07
1.379e-07
1.06998e-07
8.28889e-08
6.14078e-08
4.68238e-08
3.33473e-08
2.49409e-08
1.73605e-08
1.25298e-08
8.54888e-09
5.91965e-09
3.98634e-09
2.61329e-09
1.74569e-09
1.04659e-09
7.01932e-10
4.12476e-10
3.30158e-10
2.47841e-10
1.81241e-10
1.43074e-10
1.04907e-10
7.36316e-11
5.66059e-11
3.95803e-11
2.76565e-11
2.00787e-11
1.26598e-11
9.26289e-12
5.86599e-12
3.99769e-12
2.40102e-12
1.56111e-12
8.98574e-13
4.6322e-13
3.00209e-13
1.78653e-13
7.96422e-14
0
)


113
(
0
1.3467e-06
3.56732e-06
7.01437e-06
1.17657e-05
1.80595e-05
2.61772e-05
3.6149e-05
4.80862e-05
6.19899e-05
7.78565e-05
9.5598e-05
0.000115033
0.000135929
0.000158034
0.000181127
0.000204833
0.000228617
0.000252097
0.000274883
0.000296589
0.000316849
0.000335261
0.000351186
0.000364565
0.000375277
0.000383163
0.000388122
0.000390076
0.000389066
0.000385241
0.000378591
0.000369434
0.00035793
0.000344361
0.000328991
0.000312131
0.000294248
0.000275407
0.000256292
0.000236923
0.000217384
0.000198368
0.000179838
0.000161945
0.00014496
0.000128864
0.000113752
9.99874e-05
8.72338e-05
7.57065e-05
6.53006e-05
5.59338e-05
4.7564e-05
4.01488e-05
3.38216e-05
2.83007e-05
2.34877e-05
1.93188e-05
1.58865e-05
1.30144e-05
1.05392e-05
8.48329e-06
6.87143e-06
5.47895e-06
4.34267e-06
3.48255e-06
2.73705e-06
2.17127e-06
1.71989e-06
1.33485e-06
1.07296e-06
8.37756e-07
6.67752e-07
5.27881e-07
4.17664e-07
3.34961e-07
2.62904e-07
2.13321e-07
1.67202e-07
1.35843e-07
1.06858e-07
8.57753e-08
6.73065e-08
5.2996e-08
4.1219e-08
3.14816e-08
2.42031e-08
1.77443e-08
1.34256e-08
9.58418e-09
8.2132e-09
6.84222e-09
5.6461e-09
4.76629e-09
3.88649e-09
3.11645e-09
2.57336e-09
2.03026e-09
1.59993e-09
1.26564e-09
9.36244e-10
7.30519e-10
5.24793e-10
3.85129e-10
2.57309e-10
1.75138e-10
1.07021e-10
5.79669e-11
3.87418e-11
2.39862e-11
1.13825e-11
0
)


113
(
0
5.7869e-06
1.2027e-05
1.93952e-05
2.77812e-05
3.71386e-05
4.74023e-05
5.84838e-05
7.0277e-05
8.26641e-05
9.55218e-05
0.000108725
0.000122226
0.00013596
0.000149717
0.000163144
0.000176169
0.000188802
0.000200795
0.000212055
0.000222555
0.000232228
0.000241027
0.000248679
0.000255314
0.000260838
0.000265223
0.000268477
0.000270624
0.000271651
0.000271527
0.000270342
0.000268095
0.000264936
0.000260744
0.000255732
0.000249861
0.000243298
0.000236026
0.000228262
0.000219855
0.000211232
0.000202242
0.000192869
0.000183411
0.000173796
0.000164216
0.000154634
0.000145068
0.000135723
0.00012664
0.000117771
0.000109157
0.000100828
9.27752e-05
8.51956e-05
7.79501e-05
7.10459e-05
6.449e-05
5.84252e-05
5.2797e-05
4.74731e-05
4.24659e-05
3.8023e-05
3.38413e-05
2.99565e-05
2.65339e-05
2.3326e-05
2.04843e-05
1.79108e-05
1.54928e-05
1.35147e-05
1.16402e-05
1.00227e-05
8.57346e-06
7.28991e-06
6.20054e-06
5.18631e-06
4.3945e-06
3.63883e-06
3.05186e-06
2.50006e-06
2.0653e-06
1.6761e-06
1.35935e-06
1.09214e-06
8.64795e-07
6.87216e-07
5.26226e-07
4.14582e-07
3.13477e-07
2.7504e-07
2.36604e-07
2.02433e-07
1.75978e-07
1.49522e-07
1.25749e-07
1.07522e-07
8.92941e-08
7.40774e-08
6.14255e-08
4.89158e-08
4.00088e-08
3.11017e-08
2.43253e-08
1.79322e-08
1.31777e-08
8.96957e-09
5.50425e-09
3.97887e-09
2.61259e-09
1.30398e-09
0
)


113
(
0
8.55792e-06
1.63651e-05
2.42641e-05
3.24227e-05
4.08594e-05
4.95337e-05
5.83778e-05
6.73182e-05
7.62863e-05
8.52209e-05
9.40678e-05
0.000102778
0.000111309
0.000119617
0.000127644
0.000135324
0.000142658
0.000149618
0.000156177
0.00016231
0.000167994
0.000173206
0.000177854
0.000182046
0.000186037
0.000189531
0.000192375
0.0001946
0.000196239
0.000197278
0.000197768
0.000197845
0.000197375
0.000196397
0.000194856
0.000192977
0.000190713
0.000187981
0.000184995
0.000181682
0.000178037
0.000174033
0.000169848
0.000165381
0.000160693
0.000155928
0.000150948
0.000145828
0.000140634
0.000135333
0.000129969
0.000124593
0.000119198
0.000113746
0.000108462
0.000103179
9.79637e-05
9.2834e-05
8.77825e-05
8.2785e-05
7.79055e-05
7.32256e-05
6.86024e-05
6.41438e-05
5.99402e-05
5.58291e-05
5.18105e-05
4.80068e-05
4.43977e-05
4.09012e-05
3.76418e-05
3.4467e-05
3.15162e-05
2.87154e-05
2.60625e-05
2.36067e-05
2.12273e-05
1.91435e-05
1.71097e-05
1.53228e-05
1.35937e-05
1.20565e-05
1.06077e-05
9.29946e-06
8.10537e-06
7.00319e-06
6.03755e-06
5.11743e-06
4.35387e-06
3.63135e-06
3.31766e-06
3.00398e-06
2.71041e-06
2.45326e-06
2.1961e-06
1.95416e-06
1.74368e-06
1.5332e-06
1.34316e-06
1.17053e-06
9.99041e-07
8.5636e-07
7.13679e-07
5.90377e-07
4.7057e-07
3.66736e-07
2.68132e-07
1.76321e-07
1.32092e-07
8.86298e-08
4.49077e-08
0
)


113
(
0
8.285e-06
1.55499e-05
2.23419e-05
2.89256e-05
3.53913e-05
4.17773e-05
4.80917e-05
5.43255e-05
6.0462e-05
6.6482e-05
7.23666e-05
7.80985e-05
8.36613e-05
8.90404e-05
9.42071e-05
9.91336e-05
0.000103835
0.000108304
0.000112532
0.000116513
0.000120241
0.000123708
0.000126873
0.000129773
0.000132408
0.000134776
0.000136877
0.000138712
0.000140282
0.000141589
0.000142637
0.000143429
0.000143971
0.000144311
0.000144357
0.000144171
0.00014376
0.000143133
0.000142297
0.000141262
0.00014003
0.000138614
0.000137233
0.000136956
0.000135488
0.000133684
0.000131625
0.000129313
0.000126795
0.00012404
0.000121129
0.000118067
0.000114903
0.00011172
0.000108083
0.000104533
0.000100477
9.59999e-05
9.27344e-05
8.94498e-05
8.61555e-05
8.28548e-05
7.95597e-05
7.62742e-05
7.3003e-05
6.97729e-05
6.65591e-05
6.33697e-05
6.02303e-05
5.71199e-05
5.41003e-05
5.11115e-05
4.82038e-05
4.53576e-05
4.25719e-05
3.98829e-05
3.72312e-05
3.47107e-05
3.22149e-05
2.98598e-05
2.75412e-05
2.5344e-05
2.32089e-05
2.11726e-05
1.92255e-05
1.73504e-05
1.55944e-05
1.38781e-05
1.23144e-05
1.07953e-05
1.00875e-05
9.37977e-06
8.69635e-06
8.05697e-06
7.41758e-06
6.79832e-06
6.22069e-06
5.64305e-06
5.09416e-06
4.56976e-06
4.04699e-06
3.56539e-06
3.08379e-06
2.62837e-06
2.17764e-06
1.74473e-06
1.31501e-06
8.87224e-07
6.72266e-07
4.53447e-07
2.3023e-07
0
)


113
(
0
6.46132e-06
1.2191e-05
1.74221e-05
2.23377e-05
2.70105e-05
3.14892e-05
3.58078e-05
3.9988e-05
4.40428e-05
4.79794e-05
5.18007e-05
5.5508e-05
5.91002e-05
6.25758e-05
6.59238e-05
6.91335e-05
7.22175e-05
7.51737e-05
7.79999e-05
8.0694e-05
8.32541e-05
8.56783e-05
8.74315e-05
8.94184e-05
9.13219e-05
9.30808e-05
9.4695e-05
9.61645e-05
9.74898e-05
9.86714e-05
9.97105e-05
0.000100608
0.000101366
0.000101985
0.000102466
0.000102813
0.00010303
0.000103119
0.000103084
0.000102927
0.000102648
0.000102251
0.000101742
0.000101124
0.000100401
9.95759e-05
9.86529e-05
9.7629e-05
9.65098e-05
9.53037e-05
9.40139e-05
9.26455e-05
9.12032e-05
8.96917e-05
8.80967e-05
8.64369e-05
8.47211e-05
8.29537e-05
8.11214e-05
7.92372e-05
7.73146e-05
7.53497e-05
7.33347e-05
7.12935e-05
6.92212e-05
6.71127e-05
6.49883e-05
6.28379e-05
6.06706e-05
5.84936e-05
5.62995e-05
5.41026e-05
5.18996e-05
4.96975e-05
4.74961e-05
4.53033e-05
4.31137e-05
4.10482e-05
3.89866e-05
3.68203e-05
3.46656e-05
3.25493e-05
3.04552e-05
2.83964e-05
2.63732e-05
2.43787e-05
2.2436e-05
2.05106e-05
1.8656e-05
1.68229e-05
1.59313e-05
1.50396e-05
1.41596e-05
1.33007e-05
1.24417e-05
1.15917e-05
1.07603e-05
9.92883e-06
9.10802e-06
8.29627e-06
7.48489e-06
6.68277e-06
5.88065e-06
5.07715e-06
4.27331e-06
3.45727e-06
2.63078e-06
1.78576e-06
1.35522e-06
9.13475e-07
4.62734e-07
0
)


113
(
0
4.22494e-06
8.07886e-06
1.16243e-05
1.49416e-05
1.80611e-05
2.10075e-05
2.38031e-05
2.64664e-05
2.9012e-05
3.14514e-05
3.37931e-05
3.60436e-05
3.82079e-05
4.02898e-05
4.22864e-05
4.41961e-05
4.60301e-05
4.77896e-05
4.94752e-05
5.10874e-05
5.26264e-05
5.4092e-05
5.54734e-05
5.67826e-05
5.80195e-05
5.91841e-05
6.02764e-05
6.12964e-05
6.2244e-05
6.31195e-05
6.39229e-05
6.46546e-05
6.53149e-05
6.5904e-05
6.6421e-05
6.68682e-05
6.72466e-05
6.75571e-05
6.78003e-05
6.79771e-05
6.80863e-05
6.81298e-05
6.81094e-05
6.80264e-05
6.78819e-05
6.76769e-05
6.74128e-05
6.70867e-05
6.67006e-05
6.62588e-05
6.57622e-05
6.52129e-05
6.46128e-05
6.39643e-05
6.32554e-05
6.24977e-05
6.16966e-05
6.08546e-05
5.99589e-05
5.90179e-05
5.80419e-05
5.70264e-05
5.59601e-05
5.48654e-05
5.37359e-05
5.25607e-05
5.13636e-05
5.0128e-05
4.88613e-05
4.75766e-05
4.62473e-05
4.49056e-05
4.3532e-05
4.21388e-05
4.07262e-05
3.92886e-05
3.78412e-05
3.6366e-05
3.4886e-05
3.33817e-05
3.18722e-05
3.03456e-05
2.88116e-05
2.7266e-05
2.57112e-05
2.4149e-05
2.25751e-05
2.09972e-05
1.94028e-05
1.78023e-05
1.69949e-05
1.61876e-05
1.53755e-05
1.4555e-05
1.37345e-05
1.29083e-05
1.20703e-05
1.12324e-05
1.03822e-05
9.52161e-06
8.65995e-06
7.77129e-06
6.88263e-06
5.96617e-06
5.0446e-06
4.08819e-06
3.11392e-06
2.11155e-06
1.59999e-06
1.07616e-06
5.43523e-07
0
)


113
(
0
2.06463e-06
4.00816e-06
5.83741e-06
7.57291e-06
9.21987e-06
1.07833e-05
1.22692e-05
1.36834e-05
1.50314e-05
1.63182e-05
1.75477e-05
1.87236e-05
1.98487e-05
2.09255e-05
2.19532e-05
2.29314e-05
2.38677e-05
2.47634e-05
2.56197e-05
2.64378e-05
2.72184e-05
2.79624e-05
2.86653e-05
2.93337e-05
2.99682e-05
3.05693e-05
3.11375e-05
3.16731e-05
3.21767e-05
3.26486e-05
3.30891e-05
3.34987e-05
3.38775e-05
3.4226e-05
3.45437e-05
3.48317e-05
3.50905e-05
3.53205e-05
3.55218e-05
3.56949e-05
3.58389e-05
3.59548e-05
3.6043e-05
3.61039e-05
3.61379e-05
3.61452e-05
3.61263e-05
3.60794e-05
3.60053e-05
3.59055e-05
3.57803e-05
3.56301e-05
3.54558e-05
3.52581e-05
3.50306e-05
3.47787e-05
3.45046e-05
3.42093e-05
3.38857e-05
3.35373e-05
3.31696e-05
3.27797e-05
3.236e-05
3.19231e-05
3.1465e-05
3.09776e-05
3.04755e-05
2.99472e-05
2.93962e-05
2.88321e-05
2.82329e-05
2.76229e-05
2.69853e-05
2.63287e-05
2.56534e-05
2.49504e-05
2.42366e-05
2.34871e-05
2.27308e-05
2.19372e-05
2.11339e-05
2.02984e-05
1.94462e-05
1.85674e-05
1.76633e-05
1.67391e-05
1.57791e-05
1.48071e-05
1.37854e-05
1.27475e-05
1.22099e-05
1.16722e-05
1.11246e-05
1.0559e-05
9.99334e-06
9.41823e-06
8.82351e-06
8.22879e-06
7.61799e-06
6.9935e-06
6.36788e-06
5.71376e-06
5.05964e-06
4.38132e-06
3.69858e-06
2.99012e-06
2.27011e-06
1.5327e-06
1.158e-06
7.76717e-07
3.90993e-07
0
)


113
(
0
1.5951e-07
3.15053e-07
4.66475e-07
6.14219e-07
7.58218e-07
8.98415e-07
1.03482e-06
1.16748e-06
1.29646e-06
1.42185e-06
1.5437e-06
1.66208e-06
1.77704e-06
1.88861e-06
1.9966e-06
2.10086e-06
2.20183e-06
2.29955e-06
2.39403e-06
2.48529e-06
2.57335e-06
2.65821e-06
2.7394e-06
2.81748e-06
2.89244e-06
2.9643e-06
3.03307e-06
3.09876e-06
3.16137e-06
3.22093e-06
3.27743e-06
3.33089e-06
3.38133e-06
3.42874e-06
3.47308e-06
3.51443e-06
3.55282e-06
3.58828e-06
3.6208e-06
3.6504e-06
3.67701e-06
3.70067e-06
3.72143e-06
3.73932e-06
3.75434e-06
3.76651e-06
3.77584e-06
3.78214e-06
3.78546e-06
3.78595e-06
3.78359e-06
3.77845e-06
3.77056e-06
3.76e-06
3.74601e-06
3.72915e-06
3.70967e-06
3.68768e-06
3.66227e-06
3.63384e-06
3.60301e-06
3.56942e-06
3.53207e-06
3.49251e-06
3.45022e-06
3.40408e-06
3.35599e-06
3.30442e-06
3.24975e-06
3.1933e-06
3.13199e-06
3.06919e-06
3.00251e-06
2.93313e-06
2.8611e-06
2.7851e-06
2.70757e-06
2.62492e-06
2.54132e-06
2.4524e-06
2.36214e-06
2.26738e-06
2.17034e-06
2.06967e-06
1.96573e-06
1.85915e-06
1.74815e-06
1.63568e-06
1.51747e-06
1.39754e-06
1.33558e-06
1.27363e-06
1.21071e-06
1.14604e-06
1.08138e-06
1.01588e-06
9.48664e-07
8.81447e-07
8.12958e-07
7.43385e-07
6.73733e-07
6.02045e-07
5.30358e-07
4.57102e-07
3.83562e-07
3.08496e-07
2.32795e-07
1.56157e-07
1.17529e-07
7.85756e-08
3.94104e-08
0
)

)


10
(

113
(
0
9.75691e-08
3.00846e-07
6.99105e-07
1.41265e-06
2.68667e-06
4.996e-06
9.2017e-06
1.66597e-05
2.90852e-05
4.87649e-05
7.68e-05
0.000113675
0.000160385
0.000214231
0.000281667
0.0003585
0.000439308
0.000521167
0.000612833
0.000698154
0.000784
0.000867
0.000941462
0.00100377
0.001055
0.0010875
0.00110417
0.001105
0.00108667
0.00105333
0.000990273
0.000914333
0.0008265
0.000723818
0.000607273
0.000488909
0.000374636
0.000271
0.000185545
0.000119727
7.02e-05
4.11455e-05
2.334e-05
1.4e-05
9.11091e-06
6.50636e-06
5.14333e-06
4.4e-06
3.95e-06
3.68846e-06
3.45833e-06
3.25769e-06
3.07e-06
2.87e-06
2.64143e-06
2.39143e-06
2.12e-06
1.84667e-06
1.585e-06
1.335e-06
1.103e-06
8.85938e-07
6.99063e-07
5.49941e-07
4.17e-07
3.29778e-07
2.48556e-07
1.91333e-07
1.42511e-07
1.06289e-07
7.94526e-08
5.88737e-08
4.42263e-08
3.21211e-08
2.442e-08
1.782e-08
1.3528e-08
9.813e-09
7.386e-09
5.281e-09
3.912e-09
2.727e-09
1.94263e-09
1.25842e-09
8.903e-10
5.573e-10
3.685e-10
2.0585e-10
1.3435e-10
7.57235e-11
6.14294e-11
4.71353e-11
3.45437e-11
2.87625e-11
2.29812e-11
1.72e-11
1.46033e-11
1.20067e-11
9.41e-12
7.835e-12
6.26e-12
5.04636e-12
4.07364e-12
3.19444e-12
2.45556e-12
1.79571e-12
1.2205e-12
7.73e-13
5.73e-13
3.6e-13
1.86e-13
0
)


113
(
0
2.41365e-07
8.44807e-07
2.1472e-06
4.58626e-06
8.87245e-06
1.5965e-05
2.68983e-05
4.26741e-05
6.4163e-05
9.18341e-05
0.000126271
0.000167269
0.000214884
0.000269646
0.000329737
0.000393938
0.000460975
0.000529476
0.000597866
0.000663446
0.00072521
0.000781294
0.000830138
0.000870097
0.000898258
0.00091535
0.000920946
0.000914842
0.0008971
0.000866743
0.000825753
0.000775448
0.000718274
0.000655975
0.000590032
0.000522333
0.000455221
0.000390284
0.00032925
0.000273475
0.000223284
0.000179408
0.000141549
0.000110181
8.42812e-05
6.35111e-05
4.7312e-05
3.46035e-05
2.49718e-05
1.83856e-05
1.33474e-05
9.74619e-06
7.13905e-06
5.41308e-06
4.2275e-06
3.33826e-06
2.6909e-06
2.26872e-06
1.91116e-06
1.61823e-06
1.3895e-06
1.18097e-06
1.00291e-06
8.47882e-07
7.02731e-07
5.87528e-07
4.77797e-07
3.89948e-07
3.11555e-07
2.47348e-07
1.94954e-07
1.50435e-07
1.1672e-07
8.76354e-08
6.74788e-08
4.95542e-08
3.76022e-08
2.71435e-08
2.03377e-08
1.44452e-08
1.06827e-08
7.45275e-09
5.41603e-09
3.67763e-09
2.67159e-09
1.74692e-09
1.22576e-09
7.72555e-10
5.27429e-10
3.2002e-10
2.60321e-10
2.00622e-10
1.47306e-10
1.19519e-10
9.17315e-11
6.39444e-11
5.13909e-11
3.88374e-11
2.62839e-11
2.05131e-11
1.47424e-11
1.07107e-11
7.83846e-12
5.48581e-12
3.91258e-12
2.68385e-12
1.74042e-12