/*--------------------------------*- C++ -*----------------------------------*\
| =========                 |                                                 |
| \\      /  F ield         | OpenFOAM: The Open Source CFD Toolbox           |
|  \\    /   O peration     | Version:  2.1.0                                 |
|   \\  /    A nd           | Web:      www.OpenFOAM.org                      |
|    \\/     M anipulation  |                                                 |
\*---------------------------------------------------------------------------*/
FoamFile
{
    version     2.0;
    format      ascii;
    class       dictionary;
    location    "constant";
    object      thermophysicalProperties;
}
// * * * * * * * * * * * * * * * * * * * * * * * * * * * * * * * * * * * * * //

thermoType
{
    type            heRhoThermo;
    mixture         reactingMixture;
    transport       sutherland;
    thermo          janaf;
    energy          sensibleEnthalpy;
    equationOfState perfectGas;
    specie          specie;
}

inertSpecie N2;

chemistryReader chemkinReader;

CHEMKINFile "~/OpenFOAM/OpenFOAM-2.3.0/flameletFoam/tutorial/pilotedDiffusionFlame/les_mueller/constant/chemkin/chem.inp";

CHEMKINThermoFile "~/OpenFOAM/OpenFOAM-2.3.0/flameletFoam/tutorial/pilotedDiffusionFlame/les_mueller/constant/chemkin/therm.dat";

// ************************************************************************* //
